A1JMR
     RDKit          3D

 70 73  0  0  0  0  0  0  0  0999 V2000
   92.0540   91.8635  -42.9328 C   0  0  0  0  0  0  0  0  0  0  0  0
   93.5063   91.6808  -42.5633 C   0  0  0  0  0  0  0  0  0  0  0  0
   94.3236   91.7002  -43.6369 F   0  0  0  0  0  0  0  0  0  0  0  0
   93.9344   92.6170  -41.6892 F   0  0  0  0  0  0  0  0  0  0  0  0
   93.6754   90.4762  -41.9608 F   0  0  0  0  0  0  0  0  0  0  0  0
   91.7949   93.1237  -43.6059 N   0  0  0  0  0  0  0  0  0  0  0  0
   91.4572   94.3066  -42.9694 C   0  0  0  0  0  0  0  0  0  0  0  0
   91.3321   94.6098  -41.6065 C   0  0  0  0  0  0  0  0  0  0  0  0
   90.9306   95.8977  -41.2618 C   0  0  0  0  0  0  0  0  0  0  0  0
   90.6783   96.8571  -42.2414 C   0  0  0  0  0  0  0  0  0  0  0  0
   90.8406   96.5890  -43.6130 C   0  0  0  0  0  0  0  0  0  0  0  0
   90.5669   97.5429  -44.5976 N   0  0  0  0  0  0  0  0  0  0  0  0
   90.8825   98.9652  -44.3887 C   0  0  1  0  0  0  0  0  0  0  0  0
   92.3923   99.2417  -44.4115 C   0  0  2  0  0  0  0  0  0  0  0  0
   92.6614  100.7517  -44.3360 C   0  0  0  0  0  0  0  0  0  0  0  0
   91.9370  101.5216  -45.3652 N   0  0  0  0  0  0  0  0  0  0  0  0
   90.4940  101.2656  -45.3316 C   0  0  0  0  0  0  0  0  0  0  0  0
   90.1917   99.7770  -45.4903 C   0  0  0  0  0  0  0  0  0  0  0  0
   92.2171  102.9511  -45.2463 C   0  0  0  0  0  0  0  0  0  0  0  0
   92.9315   98.7546  -45.5688 F   0  0  0  0  0  0  0  0  0  0  0  0
   91.2240   95.2633  -43.9653 C   0  0  0  0  0  0  0  0  0  0  0  0
   91.4440   94.6078  -45.2155 C   0  0  0  0  0  0  0  0  0  0  0  0
   91.7897   93.2990  -44.9682 C   0  0  0  0  0  0  0  0  0  0  0  0
   92.0942   92.3044  -45.9402 C   0  0  0  0  0  0  0  0  0  0  0  0
   92.3773   91.4676  -46.7538 C   0  0  0  0  0  0  0  0  0  0  0  0
   92.7734   90.4675  -47.7510 C   0  0  0  0  0  0  0  0  0  0  0  0
   91.6282   89.8176  -48.3629 N   0  0  0  0  0  0  0  0  0  0  0  0
   90.7534   90.4880  -49.2296 C   0  0  0  0  0  0  0  0  0  0  0  0
   89.4798   89.9160  -49.4817 C   0  0  0  0  0  0  0  0  0  0  0  0
   88.5974   90.5089  -50.3924 C   0  0  0  0  0  0  0  0  0  0  0  0
   88.9862   91.6550  -51.0952 C   0  0  0  0  0  0  0  0  0  0  0  0
   90.2439   92.2166  -50.8671 C   0  0  0  0  0  0  0  0  0  0  0  0
   91.1237   91.6268  -49.9551 C   0  0  0  0  0  0  0  0  0  0  0  0
   88.0838   92.3146  -52.0781 C   0  0  0  0  0  0  0  0  0  0  0  0
   88.1640   93.5208  -52.2776 O   0  0  0  0  0  0  0  0  0  0  0  0
   87.2113   91.4848  -52.7549 N   0  0  0  0  0  0  0  0  0  0  0  0
   86.3894   92.0078  -53.8174 C   0  0  0  0  0  0  0  0  0  0  0  0
   89.1906   88.7865  -48.7453 O   0  0  0  0  0  0  0  0  0  0  0  0
   88.0628   88.0215  -49.1518 C   0  0  0  0  0  0  0  0  0  0  0  0
   91.7206   91.0497  -43.5855 H   0  0  0  0  0  0  0  0  0  0  0  0
   91.4222   91.8194  -42.0394 H   0  0  0  0  0  0  0  0  0  0  0  0
   91.5241   93.8746  -40.8318 H   0  0  0  0  0  0  0  0  0  0  0  0
   90.7998   96.1557  -40.2134 H   0  0  0  0  0  0  0  0  0  0  0  0
   90.3277   97.8295  -41.9101 H   0  0  0  0  0  0  0  0  0  0  0  0
   90.8614   97.2195  -45.5188 H   0  0  0  0  0  0  0  0  0  0  0  0
   90.4677   99.3080  -43.4336 H   0  0  0  0  0  0  0  0  0  0  0  0
   92.8985   98.7306  -43.5860 H   0  0  0  0  0  0  0  0  0  0  0  0
   92.3933  101.1135  -43.3348 H   0  0  0  0  0  0  0  0  0  0  0  0
   93.7380  100.9093  -44.4722 H   0  0  0  0  0  0  0  0  0  0  0  0
   90.0550  101.6327  -44.3946 H   0  0  0  0  0  0  0  0  0  0  0  0
   90.0038  101.8033  -46.1523 H   0  0  0  0  0  0  0  0  0  0  0  0
   89.1069   99.6189  -45.4473 H   0  0  0  0  0  0  0  0  0  0  0  0
   90.5173   99.4338  -46.4815 H   0  0  0  0  0  0  0  0  0  0  0  0
   91.8731  103.3606  -44.2898 H   0  0  0  0  0  0  0  0  0  0  0  0
   93.2923  103.1416  -45.3364 H   0  0  0  0  0  0  0  0  0  0  0  0
   91.7311  103.5080  -46.0551 H   0  0  0  0  0  0  0  0  0  0  0  0
   91.3500   95.0537  -46.1969 H   0  0  0  0  0  0  0  0  0  0  0  0
   93.4344   90.9031  -48.5079 H   0  0  0  0  0  0  0  0  0  0  0  0
   93.3677   89.6923  -47.2531 H   0  0  0  0  0  0  0  0  0  0  0  0
   91.0921   89.2381  -47.7177 H   0  0  0  0  0  0  0  0  0  0  0  0
   87.5999   90.1127  -50.5388 H   0  0  0  0  0  0  0  0  0  0  0  0
   90.5486   93.1126  -51.4048 H   0  0  0  0  0  0  0  0  0  0  0  0
   92.0996   92.0841  -49.8263 H   0  0  0  0  0  0  0  0  0  0  0  0
   87.3948   90.4909  -52.7509 H   0  0  0  0  0  0  0  0  0  0  0  0
   85.9460   92.9616  -53.5190 H   0  0  0  0  0  0  0  0  0  0  0  0
   87.0132   92.1571  -54.7028 H   0  0  0  0  0  0  0  0  0  0  0  0
   85.6022   91.2828  -54.0366 H   0  0  0  0  0  0  0  0  0  0  0  0
   88.0619   87.0940  -48.5711 H   0  0  0  0  0  0  0  0  0  0  0  0
   87.1317   88.5526  -48.9303 H   0  0  0  0  0  0  0  0  0  0  0  0
   88.1228   87.7509  -50.2114 H   0  0  0  0  0  0  0  0  0  0  0  0
  1  2  1  0
  2  3  1  0
  2  4  1  0
  2  5  1  0
  1  6  1  0
  6  7  1  0
  7  8  2  0
  8  9  1  0
  9 10  2  0
 10 11  1  0
 11 12  1  0
 12 13  1  0
 13 14  1  0
 14 15  1  0
 15 16  1  0
 16 17  1  0
 17 18  1  0
 16 19  1  0
 14 20  1  0
 11 21  2  0
 21 22  1  0
 22 23  2  0
 23 24  1  0
 24 25  3  0
 25 26  1  0
 26 27  1  0
 27 28  1  0
 28 29  2  0
 29 30  1  0
 30 31  2  0
 31 32  1  0
 32 33  2  0
 31 34  1  0
 34 35  2  0
 34 36  1  0
 36 37  1  0
 29 38  1  0
 38 39  1  0
 23  6  1  0
 33 28  1  0
 21  7  1  0
 18 13  1  0
  1 40  1  0
  1 41  1  0
  8 42  1  0
  9 43  1  0
 10 44  1  0
 12 45  1  0
 13 46  1  1
 14 47  1  1
 15 48  1  0
 15 49  1  0
 17 50  1  0
 17 51  1  0
 18 52  1  0
 18 53  1  0
 19 54  1  0
 19 55  1  0
 19 56  1  0
 22 57  1  0
 26 58  1  0
 26 59  1  0
 27 60  1  0
 30 61  1  0
 32 62  1  0
 33 63  1  0
 36 64  1  0
 37 65  1  0
 37 66  1  0
 37 67  1  0
 39 68  1  0
 39 69  1  0
 39 70  1  0
M  END
>  <atom.dprop.PartialCharge>  (1) 
0.022328557142857152 0.59792855714285709 -0.23493844285714285 -0.23493844285714285 -0.23493844285714285 -0.080371442857142844 0.013828557142857153 -0.18597144285714284
-0.063971442857142846 -0.21997144285714285 0.20262855714285716 -0.71857144285714292 0.17452855714285714 0.14062855714285716 0.13982855714285716 -0.72457144285714292 0.16482855714285716
-0.14237144285714284 0.15212855714285717 -0.24227144285714283 -0.15277144285714284 -0.11817144285714284 0.071228557142857155 -0.12427144285714284 -0.14607144285714285 0.26192855714285718
-0.70557144285714291 0.14562855714285716 0.019128557142857151 -0.088971442857142841 -0.16657144285714284 -0.052971442857142843 -0.17097144285714286 0.67572855714285707 -0.60707144285714287
-0.57487144285714287 0.080328557142857152 -0.34987144285714283 0.11272855714285715 0.10022855714285715 0.10022855714285715 0.14202855714285714 0.13302855714285716 0.13302855714285716
0.40582855714285715 0.071728557142857155 0.069728557142857153 0.063728557142857162 0.063728557142857162 0.061228557142857153 0.061228557142857153 0.057228557142857156 0.057228557142857156
0.032728557142857155 0.032728557142857155 0.032728557142857155 0.16202855714285716 0.080228557142857149 0.080228557142857149 0.40782855714285715 0.14502855714285715 0.16002855714285716
0.14302855714285714 0.30852855714285715 0.044395557142857152 0.044395557142857152 0.044395557142857152 0.042395557142857157 0.042395557142857157 0.042395557142857157

$$$$
