
     RDKit          3D

 70 73  0  0  0  0  0  0  0  0999 V2000
   92.0361   91.6987  -42.9647 C   0  0  0  0  0  0  0  0  0  0  0  0
   93.4908   91.4990  -42.6136 C   0  0  0  0  0  0  0  0  0  0  0  0
   94.2977   91.5395  -43.6945 F   0  0  0  0  0  0  0  0  0  0  0  0
   93.9325   92.4121  -41.7219 F   0  0  0  0  0  0  0  0  0  0  0  0
   93.6585   90.2797  -42.0414 F   0  0  0  0  0  0  0  0  0  0  0  0
   91.7779   92.9762  -43.6050 N   0  0  0  0  0  0  0  0  0  0  0  0
   91.4546   94.1455  -42.9368 C   0  0  0  0  0  0  0  0  0  0  0  0
   91.3433   94.4153  -41.5657 C   0  0  0  0  0  0  0  0  0  0  0  0
   90.9552   95.6973  -41.1855 C   0  0  0  0  0  0  0  0  0  0  0  0
   90.7032   96.6829  -42.1387 C   0  0  0  0  0  0  0  0  0  0  0  0
   90.8525   96.4482  -43.5180 C   0  0  0  0  0  0  0  0  0  0  0  0
   90.5787   97.4293  -44.4759 N   0  0  0  0  0  0  0  0  0  0  0  0
   90.9098   98.8428  -44.2323 C   0  0  1  0  0  0  0  0  0  0  0  0
   92.4217   99.1063  -44.2695 C   0  0  2  0  0  0  0  0  0  0  0  0
   92.7067  100.6114  -44.1611 C   0  0  0  0  0  0  0  0  0  0  0  0
   91.9741  101.4131  -45.1599 N   0  0  0  0  0  0  0  0  0  0  0  0
   90.5294  101.1709  -45.1088 C   0  0  0  0  0  0  0  0  0  0  0  0
   90.2103   99.6899  -45.3015 C   0  0  0  0  0  0  0  0  0  0  0  0
   92.2710  102.8365  -45.0112 C   0  0  0  0  0  0  0  0  0  0  0  0
   92.9393   98.6425  -45.4460 F   0  0  0  0  0  0  0  0  0  0  0  0
   91.2215   95.1285  -43.9067 C   0  0  0  0  0  0  0  0  0  0  0  0
   91.4257   94.5023  -45.1747 C   0  0  0  0  0  0  0  0  0  0  0  0
   91.7611   93.1847  -44.9627 C   0  0  0  0  0  0  0  0  0  0  0  0
   92.0485   92.2098  -45.9597 C   0  0  0  0  0  0  0  0  0  0  0  0
   92.3203   91.3804  -46.7847 C   0  0  0  0  0  0  0  0  0  0  0  0
   92.7080   90.3765  -47.7814 C   0  0  0  0  0  0  0  0  0  0  0  0
   91.5558   89.7535  -48.4058 N   0  0  0  0  0  0  0  0  0  0  0  0
   90.7295   90.4240  -49.3170 C   0  0  0  0  0  0  0  0  0  0  0  0
   89.4515   89.8778  -49.6005 C   0  0  0  0  0  0  0  0  0  0  0  0
   88.6137   90.4702  -50.5530 C   0  0  0  0  0  0  0  0  0  0  0  0
   89.0474   91.5988  -51.2576 C   0  0  0  0  0  0  0  0  0  0  0  0
   90.3250   92.1122  -51.0249 C   0  0  0  0  0  0  0  0  0  0  0  0
   91.1576   91.5256  -50.0671 C   0  0  0  0  0  0  0  0  0  0  0  0
   88.1975   92.2531  -52.2903 C   0  0  0  0  0  0  0  0  0  0  0  0
   88.7145   92.8553  -53.2239 O   0  0  0  0  0  0  0  0  0  0  0  0
   86.8319   92.1629  -52.1045 N   0  0  0  0  0  0  0  0  0  0  0  0
   85.9314   92.8570  -52.9909 C   0  0  0  0  0  0  0  0  0  0  0  0
   89.1099   88.7687  -48.8554 O   0  0  0  0  0  0  0  0  0  0  0  0
   88.0397   87.9716  -49.3466 C   0  0  0  0  0  0  0  0  0  0  0  0
   91.6917   90.9026  -43.6333 H   0  0  0  0  0  0  0  0  0  0  0  0
   91.4126   91.6368  -42.0665 H   0  0  0  0  0  0  0  0  0  0  0  0
   91.5358   93.6596  -40.8112 H   0  0  0  0  0  0  0  0  0  0  0  0
   90.8354   95.9300  -40.1298 H   0  0  0  0  0  0  0  0  0  0  0  0
   90.3635   97.6494  -41.7799 H   0  0  0  0  0  0  0  0  0  0  0  0
   90.8678   97.1276  -45.4061 H   0  0  0  0  0  0  0  0  0  0  0  0
   90.5118   99.1636  -43.2625 H   0  0  0  0  0  0  0  0  0  0  0  0
   92.9343   98.5702  -43.4641 H   0  0  0  0  0  0  0  0  0  0  0  0
   92.4574  100.9510  -43.1473 H   0  0  0  0  0  0  0  0  0  0  0  0
   93.7826  100.7622  -44.3101 H   0  0  0  0  0  0  0  0  0  0  0  0
   90.1095  101.5175  -44.1554 H   0  0  0  0  0  0  0  0  0  0  0  0
   90.0313  101.7345  -45.9071 H   0  0  0  0  0  0  0  0  0  0  0  0
   89.1247   99.5408  -45.2458 H   0  0  0  0  0  0  0  0  0  0  0  0
   90.5173   99.3697  -46.3062 H   0  0  0  0  0  0  0  0  0  0  0  0
   91.9465  103.2261  -44.0397 H   0  0  0  0  0  0  0  0  0  0  0  0
   93.3465  103.0183  -45.1140 H   0  0  0  0  0  0  0  0  0  0  0  0
   91.7780  103.4177  -45.7984 H   0  0  0  0  0  0  0  0  0  0  0  0
   91.3288   94.9735  -46.1439 H   0  0  0  0  0  0  0  0  0  0  0  0
   93.3894   90.7995  -48.5270 H   0  0  0  0  0  0  0  0  0  0  0  0
   93.2784   89.5870  -47.2779 H   0  0  0  0  0  0  0  0  0  0  0  0
   90.9879   89.1994  -47.7660 H   0  0  0  0  0  0  0  0  0  0  0  0
   87.6391   90.0515  -50.7712 H   0  0  0  0  0  0  0  0  0  0  0  0
   90.6813   92.9704  -51.5920 H   0  0  0  0  0  0  0  0  0  0  0  0
   92.1469   91.9504  -49.9302 H   0  0  0  0  0  0  0  0  0  0  0  0
   86.4882   91.9174  -51.1861 H   0  0  0  0  0  0  0  0  0  0  0  0
   85.9449   93.9214  -52.7420 H   0  0  0  0  0  0  0  0  0  0  0  0
   86.2435   92.7217  -54.0300 H   0  0  0  0  0  0  0  0  0  0  0  0
   84.9255   92.4556  -52.8482 H   0  0  0  0  0  0  0  0  0  0  0  0
   88.0126   87.0498  -48.7575 H   0  0  0  0  0  0  0  0  0  0  0  0
   87.0806   88.4811  -49.2094 H   0  0  0  0  0  0  0  0  0  0  0  0
   88.1941   87.6928  -50.3945 H   0  0  0  0  0  0  0  0  0  0  0  0
  1  2  1  0
  2  3  1  0
  2  4  1  0
  2  5  1  0
  1  6  1  0
  6  7  1  0
  7  8  2  0
  8  9  1  0
  9 10  2  0
 10 11  1  0
 11 12  1  0
 12 13  1  0
 13 14  1  0
 14 15  1  0
 15 16  1  0
 16 17  1  0
 17 18  1  0
 16 19  1  0
 14 20  1  0
 11 21  2  0
 21 22  1  0
 22 23  2  0
 23 24  1  0
 24 25  3  0
 25 26  1  0
 26 27  1  0
 27 28  1  0
 28 29  2  0
 29 30  1  0
 30 31  2  0
 31 32  1  0
 32 33  2  0
 31 34  1  0
 34 35  2  0
 34 36  1  0
 36 37  1  0
 29 38  1  0
 38 39  1  0
 23  6  1  0
 33 28  1  0
 21  7  1  0
 18 13  1  0
  1 40  1  0
  1 41  1  0
  8 42  1  0
  9 43  1  0
 10 44  1  0
 12 45  1  0
 13 46  1  1
 14 47  1  1
 15 48  1  0
 15 49  1  0
 17 50  1  0
 17 51  1  0
 18 52  1  0
 18 53  1  0
 19 54  1  0
 19 55  1  0
 19 56  1  0
 22 57  1  0
 26 58  1  0
 26 59  1  0
 27 60  1  0
 30 61  1  0
 32 62  1  0
 33 63  1  0
 36 64  1  0
 37 65  1  0
 37 66  1  0
 37 67  1  0
 39 68  1  0
 39 69  1  0
 39 70  1  0
M  END
>  <atom.dprop.PartialCharge>  (1) 
0.022328557142857152 0.59792855714285709 -0.23493844285714285 -0.23493844285714285 -0.23493844285714285 -0.080371442857142844 0.013828557142857153 -0.18597144285714284
-0.063971442857142846 -0.21997144285714285 0.20262855714285716 -0.71857144285714292 0.17452855714285714 0.14062855714285716 0.13982855714285716 -0.72457144285714292 0.16482855714285716
-0.14237144285714284 0.15212855714285717 -0.24227144285714283 -0.15277144285714284 -0.11817144285714284 0.071228557142857155 -0.12427144285714284 -0.14607144285714285 0.26192855714285718
-0.70557144285714291 0.14562855714285716 0.019128557142857151 -0.088971442857142841 -0.16657144285714284 -0.052971442857142843 -0.17097144285714286 0.67572855714285707 -0.60707144285714287
-0.57487144285714287 0.080328557142857152 -0.34987144285714283 0.11272855714285715 0.10022855714285715 0.10022855714285715 0.14202855714285714 0.13302855714285716 0.13302855714285716
0.40582855714285715 0.071728557142857155 0.069728557142857153 0.063728557142857162 0.063728557142857162 0.061228557142857153 0.061228557142857153 0.057228557142857156 0.057228557142857156
0.032728557142857155 0.032728557142857155 0.032728557142857155 0.16202855714285716 0.080228557142857149 0.080228557142857149 0.40782855714285715 0.14502855714285715 0.16002855714285716
0.14302855714285714 0.30852855714285715 0.044395557142857152 0.044395557142857152 0.044395557142857152 0.042395557142857157 0.042395557142857157 0.042395557142857157

$$$$
