A1JMR
     RDKit          3D

 70 73  0  0  0  0  0  0  0  0999 V2000
   92.0540   91.8635  -42.9328 C   0  0  0  0  0  0  0  0  0  0  0  0
   93.5063   91.6808  -42.5633 C   0  0  0  0  0  0  0  0  0  0  0  0
   94.3236   91.7002  -43.6369 F   0  0  0  0  0  0  0  0  0  0  0  0
   93.9344   92.6170  -41.6892 F   0  0  0  0  0  0  0  0  0  0  0  0
   93.6754   90.4762  -41.9608 F   0  0  0  0  0  0  0  0  0  0  0  0
   91.7949   93.1237  -43.6059 N   0  0  0  0  0  0  0  0  0  0  0  0
   91.4572   94.3066  -42.9694 C   0  0  0  0  0  0  0  0  0  0  0  0
   91.3321   94.6098  -41.6065 C   0  0  0  0  0  0  0  0  0  0  0  0
   90.9306   95.8977  -41.2618 C   0  0  0  0  0  0  0  0  0  0  0  0
   90.6783   96.8571  -42.2414 C   0  0  0  0  0  0  0  0  0  0  0  0
   90.8406   96.5890  -43.6130 C   0  0  0  0  0  0  0  0  0  0  0  0
   90.5669   97.5429  -44.5976 N   0  0  0  0  0  0  0  0  0  0  0  0
   90.8825   98.9652  -44.3887 C   0  0  1  0  0  0  0  0  0  0  0  0
   92.3923   99.2417  -44.4115 C   0  0  2  0  0  0  0  0  0  0  0  0
   92.6614  100.7517  -44.3360 C   0  0  0  0  0  0  0  0  0  0  0  0
   91.9370  101.5216  -45.3652 N   0  0  0  0  0  0  0  0  0  0  0  0
   90.4940  101.2656  -45.3316 C   0  0  0  0  0  0  0  0  0  0  0  0
   90.1917   99.7770  -45.4903 C   0  0  0  0  0  0  0  0  0  0  0  0
   92.2171  102.9511  -45.2463 C   0  0  0  0  0  0  0  0  0  0  0  0
   92.9315   98.7546  -45.5688 F   0  0  0  0  0  0  0  0  0  0  0  0
   91.2240   95.2633  -43.9653 C   0  0  0  0  0  0  0  0  0  0  0  0
   91.4440   94.6078  -45.2155 C   0  0  0  0  0  0  0  0  0  0  0  0
   91.7897   93.2990  -44.9682 C   0  0  0  0  0  0  0  0  0  0  0  0
   92.0942   92.3044  -45.9402 C   0  0  0  0  0  0  0  0  0  0  0  0
   92.3773   91.4676  -46.7538 C   0  0  0  0  0  0  0  0  0  0  0  0
   92.7734   90.4675  -47.7510 C   0  0  0  0  0  0  0  0  0  0  0  0
   91.6282   89.8176  -48.3629 N   0  0  0  0  0  0  0  0  0  0  0  0
   90.7534   90.4880  -49.2296 C   0  0  0  0  0  0  0  0  0  0  0  0
   89.4798   89.9160  -49.4817 C   0  0  0  0  0  0  0  0  0  0  0  0
   88.5974   90.5089  -50.3924 C   0  0  0  0  0  0  0  0  0  0  0  0
   88.9862   91.6550  -51.0952 C   0  0  0  0  0  0  0  0  0  0  0  0
   90.2439   92.2166  -50.8671 C   0  0  0  0  0  0  0  0  0  0  0  0
   91.1237   91.6268  -49.9551 C   0  0  0  0  0  0  0  0  0  0  0  0
   88.0838   92.3146  -52.0781 C   0  0  0  0  0  0  0  0  0  0  0  0
   88.1640   93.5208  -52.2776 O   0  0  0  0  0  0  0  0  0  0  0  0
   87.2113   91.4848  -52.7549 N   0  0  0  0  0  0  0  0  0  0  0  0
   86.3894   92.0078  -53.8174 C   0  0  0  0  0  0  0  0  0  0  0  0
   89.1906   88.7865  -48.7453 O   0  0  0  0  0  0  0  0  0  0  0  0
   88.0628   88.0215  -49.1518 C   0  0  0  0  0  0  0  0  0  0  0  0
   91.7206   91.0497  -43.5855 H   0  0  0  0  0  0  0  0  0  0  0  0
   91.4222   91.8194  -42.0394 H   0  0  0  0  0  0  0  0  0  0  0  0
   91.5241   93.8746  -40.8318 H   0  0  0  0  0  0  0  0  0  0  0  0
   90.7998   96.1557  -40.2134 H   0  0  0  0  0  0  0  0  0  0  0  0
   90.3277   97.8295  -41.9101 H   0  0  0  0  0  0  0  0  0  0  0  0
   90.8614   97.2195  -45.5188 H   0  0  0  0  0  0  0  0  0  0  0  0
   90.4677   99.3080  -43.4336 H   0  0  0  0  0  0  0  0  0  0  0  0
   92.8985   98.7306  -43.5860 H   0  0  0  0  0  0  0  0  0  0  0  0
   92.3933  101.1135  -43.3348 H   0  0  0  0  0  0  0  0  0  0  0  0
   93.7380  100.9093  -44.4722 H   0  0  0  0  0  0  0  0  0  0  0  0
   90.0550  101.6327  -44.3946 H   0  0  0  0  0  0  0  0  0  0  0  0
   90.0038  101.8033  -46.1523 H   0  0  0  0  0  0  0  0  0  0  0  0
   89.1069   99.6189  -45.4473 H   0  0  0  0  0  0  0  0  0  0  0  0
   90.5173   99.4338  -46.4815 H   0  0  0  0  0  0  0  0  0  0  0  0
   91.8731  103.3606  -44.2898 H   0  0  0  0  0  0  0  0  0  0  0  0
   93.2923  103.1416  -45.3364 H   0  0  0  0  0  0  0  0  0  0  0  0
   91.7311  103.5080  -46.0551 H   0  0  0  0  0  0  0  0  0  0  0  0
   91.3500   95.0537  -46.1969 H   0  0  0  0  0  0  0  0  0  0  0  0
   93.4344   90.9031  -48.5079 H   0  0  0  0  0  0  0  0  0  0  0  0
   93.3677   89.6923  -47.2531 H   0  0  0  0  0  0  0  0  0  0  0  0
   91.0921   89.2381  -47.7177 H   0  0  0  0  0  0  0  0  0  0  0  0
   87.5999   90.1127  -50.5388 H   0  0  0  0  0  0  0  0  0  0  0  0
   90.5486   93.1126  -51.4048 H   0  0  0  0  0  0  0  0  0  0  0  0
   92.0996   92.0841  -49.8263 H   0  0  0  0  0  0  0  0  0  0  0  0
   87.3948   90.4909  -52.7509 H   0  0  0  0  0  0  0  0  0  0  0  0
   85.9460   92.9616  -53.5190 H   0  0  0  0  0  0  0  0  0  0  0  0
   87.0132   92.1571  -54.7028 H   0  0  0  0  0  0  0  0  0  0  0  0
   85.6022   91.2828  -54.0366 H   0  0  0  0  0  0  0  0  0  0  0  0
   88.0619   87.0940  -48.5711 H   0  0  0  0  0  0  0  0  0  0  0  0
   87.1317   88.5526  -48.9303 H   0  0  0  0  0  0  0  0  0  0  0  0
   88.1228   87.7509  -50.2114 H   0  0  0  0  0  0  0  0  0  0  0  0
  1  2  1  0
  2  3  1  0
  2  4  1  0
  2  5  1  0
  1  6  1  0
  6  7  1  0
  7  8  2  0
  8  9  1  0
  9 10  2  0
 10 11  1  0
 11 12  1  0
 12 13  1  0
 13 14  1  0
 14 15  1  0
 15 16  1  0
 16 17  1  0
 17 18  1  0
 16 19  1  0
 14 20  1  0
 11 21  2  0
 21 22  1  0
 22 23  2  0
 23 24  1  0
 24 25  3  0
 25 26  1  0
 26 27  1  0
 27 28  1  0
 28 29  2  0
 29 30  1  0
 30 31  2  0
 31 32  1  0
 32 33  2  0
 31 34  1  0
 34 35  2  0
 34 36  1  0
 36 37  1  0
 29 38  1  0
 38 39  1  0
 23  6  1  0
 33 28  1  0
 21  7  1  0
 18 13  1  0
  1 40  1  0
  1 41  1  0
  8 42  1  0
  9 43  1  0
 10 44  1  0
 12 45  1  0
 13 46  1  1
 14 47  1  1
 15 48  1  0
 15 49  1  0
 17 50  1  0
 17 51  1  0
 18 52  1  0
 18 53  1  0
 19 54  1  0
 19 55  1  0
 19 56  1  0
 22 57  1  0
 26 58  1  0
 26 59  1  0
 27 60  1  0
 30 61  1  0
 32 62  1  0
 33 63  1  0
 36 64  1  0
 37 65  1  0
 37 66  1  0
 37 67  1  0
 39 68  1  0
 39 69  1  0
 39 70  1  0
M  END
>  <atom.dprop.PartialCharge>  (1) 
0.022328557142857152 0.59792855714285709 -0.23493844285714285 -0.23493844285714285 -0.23493844285714285 -0.080371442857142844 0.013828557142857153 -0.18597144285714284
-0.063971442857142846 -0.21997144285714285 0.20262855714285716 -0.71857144285714292 0.17452855714285714 0.14062855714285716 0.13982855714285716 -0.72457144285714292 0.16482855714285716
-0.14237144285714284 0.15212855714285717 -0.24227144285714283 -0.15277144285714284 -0.11817144285714284 0.071228557142857155 -0.12427144285714284 -0.14607144285714285 0.26192855714285718
-0.70557144285714291 0.14562855714285716 0.019128557142857151 -0.088971442857142841 -0.16657144285714284 -0.052971442857142843 -0.17097144285714286 0.67572855714285707 -0.60707144285714287
-0.57487144285714287 0.080328557142857152 -0.34987144285714283 0.11272855714285715 0.10022855714285715 0.10022855714285715 0.14202855714285714 0.13302855714285716 0.13302855714285716
0.40582855714285715 0.071728557142857155 0.069728557142857153 0.063728557142857162 0.063728557142857162 0.061228557142857153 0.061228557142857153 0.057228557142857156 0.057228557142857156
0.032728557142857155 0.032728557142857155 0.032728557142857155 0.16202855714285716 0.080228557142857149 0.080228557142857149 0.40782855714285715 0.14502855714285715 0.16002855714285716
0.14302855714285714 0.30852855714285715 0.044395557142857152 0.044395557142857152 0.044395557142857152 0.042395557142857157 0.042395557142857157 0.042395557142857157

$$$$
Vu2025_01_1
  -OEChem-03232617403D

 48 50  0     0  0  0  0  0  0999 V2000
   91.5724   92.4054  -46.8745 C   0  0  0  0  0  0  0  0  0  0  0  0
   91.6188   91.5986  -47.7636 C   0  0  0  0  0  0  0  0  0  0  0  0
   87.5959   88.2079  -50.7492 C   0  0  0  0  0  0  0  0  0  0  0  0
   88.0533   89.5228  -50.8363 C   0  0  0  0  0  0  0  0  0  0  0  0
   88.2412   87.2999  -49.9098 C   0  0  0  0  0  0  0  0  0  0  0  0
   91.4734   95.7187  -41.8765 C   0  0  0  0  0  0  0  0  0  0  0  0
   91.6169   94.4150  -42.3585 C   0  0  0  0  0  0  0  0  0  0  0  0
   89.1554   89.9297  -50.0841 C   0  0  0  0  0  0  0  0  0  0  0  0
   89.3433   87.7067  -49.1577 C   0  0  0  0  0  0  0  0  0  0  0  0
   91.3233   94.7163  -45.9463 C   0  0  0  0  0  0  0  0  0  0  0  0
   91.1980   96.5836  -44.1289 C   0  0  0  0  0  0  0  0  0  0  0  0
   91.5163   93.3600  -45.8217 C   0  0  0  0  0  0  0  0  0  0  0  0
   91.3393   95.2772  -44.6383 C   0  0  0  0  0  0  0  0  0  0  0  0
   91.2672   96.7874  -42.7462 C   0  0  0  0  0  0  0  0  0  0  0  0
   91.5453   94.2252  -43.7434 C   0  0  0  0  0  0  0  0  0  0  0  0
   89.8007   89.0215  -49.2448 C   0  0  0  0  0  0  0  0  0  0  0  0
   93.3148   91.5296  -43.5307 C   0  0  0  0  0  0  0  0  0  0  0  0
   91.9942  100.5089  -42.2137 C   0  0  0  0  0  0  0  0  0  0  0  0
   91.6771   90.6169  -48.8476 C   0  0  0  0  0  0  0  0  0  0  0  0
   91.1210   98.1687  -42.1994 C   0  0  0  0  0  0  0  0  0  0  0  0
   91.8687   91.7503  -43.9396 C   0  0  0  0  0  0  0  0  0  0  0  0
   91.6494   93.0729  -44.4893 N   0  0  0  0  0  0  0  0  0  0  0  0
   90.8809   89.4197  -48.5079 N   0  0  0  0  0  0  0  0  0  0  0  0
   92.1553   99.1140  -42.7015 N   0  3  0  0  0  0  0  0  0  0  0  0
   86.7385   87.8912  -51.3355 H   0  0  0  0  0  0  0  0  0  0  0  0
   87.5506   90.2301  -51.4897 H   0  0  0  0  0  0  0  0  0  0  0  0
   87.8850   86.2760  -49.8420 H   0  0  0  0  0  0  0  0  0  0  0  0
   91.5249   95.8910  -40.8038 H   0  0  0  0  0  0  0  0  0  0  0  0
   91.7775   93.5867  -41.6767 H   0  0  0  0  0  0  0  0  0  0  0  0
   89.5036   90.9565  -50.1608 H   0  0  0  0  0  0  0  0  0  0  0  0
   89.8388   86.9910  -48.5064 H   0  0  0  0  0  0  0  0  0  0  0  0
   91.1842   95.2548  -46.8748 H   0  0  0  0  0  0  0  0  0  0  0  0
   91.0382   97.4199  -44.8041 H   0  0  0  0  0  0  0  0  0  0  0  0
   93.9905   91.6514  -44.3837 H   0  0  0  0  0  0  0  0  0  0  0  0
   93.4468   90.5186  -43.1330 H   0  0  0  0  0  0  0  0  0  0  0  0
   93.6204   92.2427  -42.7581 H   0  0  0  0  0  0  0  0  0  0  0  0
   91.0023  100.8536  -42.5105 H   0  0  0  0  0  0  0  0  0  0  0  0
   92.7757  101.1164  -42.6741 H   0  0  0  0  0  0  0  0  0  0  0  0
   92.0960  100.4957  -41.1271 H   0  0  0  0  0  0  0  0  0  0  0  0
   92.7094   90.3066  -49.0349 H   0  0  0  0  0  0  0  0  0  0  0  0
   91.2806   91.0451  -49.7737 H   0  0  0  0  0  0  0  0  0  0  0  0
   91.1985   98.1790  -41.1041 H   0  0  0  0  0  0  0  0  0  0  0  0
   90.1486   98.6063  -42.4625 H   0  0  0  0  0  0  0  0  0  0  0  0
   91.2008   91.6264  -43.0802 H   0  0  0  0  0  0  0  0  0  0  0  0
   91.5652   91.0159  -44.6945 H   0  0  0  0  0  0  0  0  0  0  0  0
   91.1727   88.9059  -47.7029 H   0  0  0  0  0  0  0  0  0  0  0  0
   93.0859   98.7670  -42.4325 H   0  0  0  0  0  0  0  0  0  0  0  0
   92.1411   99.1117  -43.7298 H   0  0  0  0  0  0  0  0  0  0  0  0
  1  2  3  0  0  0  0
  1 12  1  0  0  0  0
  2 19  1  0  0  0  0
  3  4  1  0  0  0  0
  3  5  2  0  0  0  0
  4  8  2  0  0  0  0
  5  9  1  0  0  0  0
  6  7  2  0  0  0  0
  6 14  1  0  0  0  0
  7 15  1  0  0  0  0
  8 16  1  0  0  0  0
  9 16  2  0  0  0  0
 10 12  2  0  0  0  0
 10 13  1  0  0  0  0
 11 13  1  0  0  0  0
 11 14  2  0  0  0  0
 12 22  1  0  0  0  0
 13 15  2  0  0  0  0
 14 20  1  0  0  0  0
 15 22  1  0  0  0  0
 16 23  1  0  0  0  0
 17 21  1  0  0  0  0
 18 24  1  0  0  0  0
 19 23  1  0  0  0  0
 20 24  1  0  0  0  0
 21 22  1  0  0  0  0
  3 25  1  0  0  0  0
  4 26  1  0  0  0  0
  5 27  1  0  0  0  0
  6 28  1  0  0  0  0
  7 29  1  0  0  0  0
  8 30  1  0  0  0  0
  9 31  1  0  0  0  0
 10 32  1  0  0  0  0
 11 33  1  0  0  0  0
 17 34  1  0  0  0  0
 17 35  1  0  0  0  0
 17 36  1  0  0  0  0
 18 37  1  0  0  0  0
 18 38  1  0  0  0  0
 18 39  1  0  0  0  0
 19 40  1  0  0  0  0
 19 41  1  0  0  0  0
 20 42  1  0  0  0  0
 20 43  1  0  0  0  0
 21 44  1  0  0  0  0
 21 45  1  0  0  0  0
 23 46  1  0  0  0  0
 24 47  1  0  0  0  0
 24 48  1  0  0  0  0
M  CHG  1  24   1
M  END
> <POSIT::Probability>
0.180000

> <best_receptor_index>
0

> <POSIT receptor title>
9S9O-CLEAN(A)altA

> <POSIT::Method>
FRED

> <Result>
POOR

> <Pose>
1

> <POSIT::Relaxed>
FALSE

> <POSIT receptor filename>
../9S9O-CLEAN_A__DU__A1JMR_A-402.oedu

$$$$
Vu2025_05_1
  -OEChem-03232617403D

 59 61  0     0  0  0  0  0  0999 V2000
   91.8336   91.5968  -46.6729 C   0  0  0  0  0  0  0  0  0  0  0  0
   91.8045   90.9427  -47.6803 C   0  0  0  0  0  0  0  0  0  0  0  0
   92.2391   94.0861  -41.2316 C   0  0  0  0  0  0  0  0  0  0  0  0
   92.3988   92.8894  -41.9353 C   0  0  0  0  0  0  0  0  0  0  0  0
   89.5995   87.1310  -49.3902 C   0  0  0  0  0  0  0  0  0  0  0  0
   88.4276   86.7778  -50.0499 C   0  0  0  0  0  0  0  0  0  0  0  0
   91.5665   93.7072  -45.3540 C   0  0  0  0  0  0  0  0  0  0  0  0
   91.5810   95.2562  -43.2552 C   0  0  0  0  0  0  0  0  0  0  0  0
   89.1377   89.4082  -49.8985 C   0  0  0  0  0  0  0  0  0  0  0  0
   91.8669   92.3706  -45.4800 C   0  0  0  0  0  0  0  0  0  0  0  0
   91.7347   94.0610  -43.9858 C   0  0  0  0  0  0  0  0  0  0  0  0
   91.8368   95.2521  -41.8793 C   0  0  0  0  0  0  0  0  0  0  0  0
   92.1394   92.9076  -43.3106 C   0  0  0  0  0  0  0  0  0  0  0  0
   89.9688   88.4689  -49.3084 C   0  0  0  0  0  0  0  0  0  0  0  0
   87.6655   87.7922  -50.6066 C   0  0  0  0  0  0  0  0  0  0  0  0
   94.0992   90.3813  -43.7793 C   0  0  0  0  0  0  0  0  0  0  0  0
   86.1493   85.9102  -51.3158 C   0  0  0  0  0  0  0  0  0  0  0  0
   86.4537   87.9116  -52.8112 C   0  0  0  0  0  0  0  0  0  0  0  0
   85.1022   88.0881  -50.7318 C   0  0  0  0  0  0  0  0  0  0  0  0
   89.2881   96.1355  -40.4825 C   0  0  0  0  0  0  0  0  0  0  0  0
   91.7708   90.1472  -48.9083 C   0  0  0  0  0  0  0  0  0  0  0  0
   91.6786   96.5149  -41.0993 C   0  0  0  0  0  0  0  0  0  0  0  0
   92.5975   90.5309  -43.9506 C   0  0  0  0  0  0  0  0  0  0  0  0
   86.4021   87.4491  -51.3227 C   0  0  0  0  0  0  0  0  0  0  0  0
   87.9918   89.1027  -50.5476 N   0  0  0  0  0  0  0  0  0  0  0  0
   92.2116   91.8967  -44.2423 N   0  0  0  0  0  0  0  0  0  0  0  0
   91.1153   88.8455  -48.6665 N   0  0  0  0  0  0  0  0  0  0  0  0
   90.6699   96.4124  -40.0097 N   0  3  0  0  0  0  0  0  0  0  0  0
   92.4345   94.0966  -40.1617 H   0  0  0  0  0  0  0  0  0  0  0  0
   92.7125   91.9846  -41.4258 H   0  0  0  0  0  0  0  0  0  0  0  0
   90.2177   86.3561  -48.9451 H   0  0  0  0  0  0  0  0  0  0  0  0
   88.1290   85.7372  -50.1214 H   0  0  0  0  0  0  0  0  0  0  0  0
   91.2577   94.3663  -46.1550 H   0  0  0  0  0  0  0  0  0  0  0  0
   91.2685   96.1680  -43.7571 H   0  0  0  0  0  0  0  0  0  0  0  0
   89.3725   90.4679  -49.8672 H   0  0  0  0  0  0  0  0  0  0  0  0
   94.6338   90.6921  -44.6829 H   0  0  0  0  0  0  0  0  0  0  0  0
   94.3558   89.3374  -43.5736 H   0  0  0  0  0  0  0  0  0  0  0  0
   94.4651   90.9927  -42.9479 H   0  0  0  0  0  0  0  0  0  0  0  0
   85.2184   85.6753  -51.8453 H   0  0  0  0  0  0  0  0  0  0  0  0
   86.9576   85.3463  -51.7969 H   0  0  0  0  0  0  0  0  0  0  0  0
   86.0536   85.5233  -50.2950 H   0  0  0  0  0  0  0  0  0  0  0  0
   85.5359   87.6711  -53.3609 H   0  0  0  0  0  0  0  0  0  0  0  0
   86.6008   88.9966  -52.8670 H   0  0  0  0  0  0  0  0  0  0  0  0
   87.2814   87.4392  -53.3499 H   0  0  0  0  0  0  0  0  0  0  0  0
   84.2026   87.8068  -51.2913 H   0  0  0  0  0  0  0  0  0  0  0  0
   85.1633   89.1827  -50.7494 H   0  0  0  0  0  0  0  0  0  0  0  0
   84.9478   87.7710  -49.6935 H   0  0  0  0  0  0  0  0  0  0  0  0
   89.0065   96.9313  -41.1741 H   0  0  0  0  0  0  0  0  0  0  0  0
   88.6324   96.1227  -39.6098 H   0  0  0  0  0  0  0  0  0  0  0  0
   89.2952   95.1654  -40.9827 H   0  0  0  0  0  0  0  0  0  0  0  0
   92.7833   89.9632  -49.2795 H   0  0  0  0  0  0  0  0  0  0  0  0
   91.2156   90.6743  -49.6908 H   0  0  0  0  0  0  0  0  0  0  0  0
   91.3580   97.3471  -41.7401 H   0  0  0  0  0  0  0  0  0  0  0  0
   92.6208   96.8148  -40.6210 H   0  0  0  0  0  0  0  0  0  0  0  0
   92.0717   90.2177  -43.0421 H   0  0  0  0  0  0  0  0  0  0  0  0
   92.2376   89.8960  -44.7685 H   0  0  0  0  0  0  0  0  0  0  0  0
   91.5552   88.2432  -48.0025 H   0  0  0  0  0  0  0  0  0  0  0  0
   90.9576   95.6730  -39.3546 H   0  0  0  0  0  0  0  0  0  0  0  0
   90.6728   97.2857  -39.4665 H   0  0  0  0  0  0  0  0  0  0  0  0
  1  2  3  0  0  0  0
  1 10  1  0  0  0  0
  2 21  1  0  0  0  0
  3  4  2  0  0  0  0
  3 12  1  0  0  0  0
  4 13  1  0  0  0  0
  5  6  2  0  0  0  0
  5 14  1  0  0  0  0
  6 15  1  0  0  0  0
  7 10  2  0  0  0  0
  7 11  1  0  0  0  0
  8 11  1  0  0  0  0
  8 12  2  0  0  0  0
  9 14  2  0  0  0  0
  9 25  1  0  0  0  0
 10 26  1  0  0  0  0
 11 13  2  0  0  0  0
 12 22  1  0  0  0  0
 13 26  1  0  0  0  0
 14 27  1  0  0  0  0
 15 24  1  0  0  0  0
 15 25  2  0  0  0  0
 16 23  1  0  0  0  0
 17 24  1  0  0  0  0
 18 24  1  0  0  0  0
 19 24  1  0  0  0  0
 20 28  1  0  0  0  0
 21 27  1  0  0  0  0
 22 28  1  0  0  0  0
 23 26  1  0  0  0  0
  3 29  1  0  0  0  0
  4 30  1  0  0  0  0
  5 31  1  0  0  0  0
  6 32  1  0  0  0  0
  7 33  1  0  0  0  0
  8 34  1  0  0  0  0
  9 35  1  0  0  0  0
 16 36  1  0  0  0  0
 16 37  1  0  0  0  0
 16 38  1  0  0  0  0
 17 39  1  0  0  0  0
 17 40  1  0  0  0  0
 17 41  1  0  0  0  0
 18 42  1  0  0  0  0
 18 43  1  0  0  0  0
 18 44  1  0  0  0  0
 19 45  1  0  0  0  0
 19 46  1  0  0  0  0
 19 47  1  0  0  0  0
 20 48  1  0  0  0  0
 20 49  1  0  0  0  0
 20 50  1  0  0  0  0
 21 51  1  0  0  0  0
 21 52  1  0  0  0  0
 22 53  1  0  0  0  0
 22 54  1  0  0  0  0
 23 55  1  0  0  0  0
 23 56  1  0  0  0  0
 27 57  1  0  0  0  0
 28 58  1  0  0  0  0
 28 59  1  0  0  0  0
M  CHG  1  28   1
M  END
> <POSIT::Probability>
0.240000

> <best_receptor_index>
0

> <POSIT receptor title>
9S9O-CLEAN(A)altA

> <POSIT::Method>
FRED

> <Result>
POOR

> <Pose>
1

> <POSIT::Relaxed>
FALSE

> <POSIT receptor filename>
../9S9O-CLEAN_A__DU__A1JMR_A-402.oedu

$$$$
Vu2025_02_1
  -OEChem-03232617403D

 62 65  0     0  0  0  0  0  0999 V2000
   92.1652   91.8889  -46.1014 C   0  0  0  0  0  0  0  0  0  0  0  0
   92.3794   90.9209  -46.7801 C   0  0  0  0  0  0  0  0  0  0  0  0
   88.5245   91.1949  -50.2531 C   0  0  0  0  0  0  0  0  0  0  0  0
   89.8427   91.6495  -50.2149 C   0  0  0  0  0  0  0  0  0  0  0  0
   88.1634   90.0450  -49.5512 C   0  0  0  0  0  0  0  0  0  0  0  0
   91.3215   96.1920  -42.0103 C   0  0  0  0  0  0  0  0  0  0  0  0
   91.7018   94.8577  -42.1763 C   0  0  0  0  0  0  0  0  0  0  0  0
   90.7994   90.9546  -49.4748 C   0  0  0  0  0  0  0  0  0  0  0  0
   89.1201   89.3501  -48.8110 C   0  0  0  0  0  0  0  0  0  0  0  0
   91.4952   94.2717  -45.7349 C   0  0  0  0  0  0  0  0  0  0  0  0
   90.9876   96.4554  -44.4012 C   0  0  0  0  0  0  0  0  0  0  0  0
   91.9106   93.0348  -45.2989 C   0  0  0  0  0  0  0  0  0  0  0  0
   91.3672   95.1119  -44.5933 C   0  0  0  0  0  0  0  0  0  0  0  0
   90.9697   96.9801  -43.1040 C   0  0  0  0  0  0  0  0  0  0  0  0
   91.7150   94.3456  -43.4790 C   0  0  0  0  0  0  0  0  0  0  0  0
   90.4382   89.8047  -48.7728 C   0  0  0  0  0  0  0  0  0  0  0  0
   90.5697   98.3945  -42.8927 C   0  0  0  0  0  0  0  0  0  0  0  0
   91.2292  101.3417  -42.7502 C   0  0  0  0  0  0  0  0  0  0  0  0
   90.7904  101.3483  -45.2322 C   0  0  0  0  0  0  0  0  0  0  0  0
   92.7240  101.4673  -43.0171 C   0  0  0  0  0  0  0  0  0  0  0  0
   92.2865  101.4741  -45.4928 C   0  0  0  0  0  0  0  0  0  0  0  0
   90.4790  100.6635  -43.8989 C   0  0  0  0  0  0  0  0  0  0  0  0
   93.9043   92.1159  -42.6506 C   0  0  0  0  0  0  0  0  0  0  0  0
   92.7647  103.6424  -44.2951 C   0  0  0  0  0  0  0  0  0  0  0  0
   92.6424   89.7416  -47.6060 C   0  0  0  0  0  0  0  0  0  0  0  0
   92.4577   91.9857  -43.0950 C   0  0  0  0  0  0  0  0  0  0  0  0
   92.0407   93.0889  -43.9368 N   0  0  0  0  0  0  0  0  0  0  0  0
   91.3754   89.1233  -48.0478 N   0  0  0  0  0  0  0  0  0  0  0  0
   90.7933   99.2528  -43.9586 N   0  0  0  0  0  0  0  0  0  0  0  0
   92.9800  102.1532  -44.3375 N   0  3  0  0  0  0  0  0  0  0  0  0
   90.0936   98.7283  -41.8109 O   0  0  0  0  0  0  0  0  0  0  0  0
   87.7801   91.7354  -50.8302 H   0  0  0  0  0  0  0  0  0  0  0  0
   90.1240   92.5452  -50.7613 H   0  0  0  0  0  0  0  0  0  0  0  0
   87.1369   89.6910  -49.5810 H   0  0  0  0  0  0  0  0  0  0  0  0
   91.3042   96.6103  -41.0061 H   0  0  0  0  0  0  0  0  0  0  0  0
   91.9752   94.2490  -41.3210 H   0  0  0  0  0  0  0  0  0  0  0  0
   91.8237   91.3176  -49.4531 H   0  0  0  0  0  0  0  0  0  0  0  0
   88.8279   88.4552  -48.2673 H   0  0  0  0  0  0  0  0  0  0  0  0
   91.3017   94.5505  -46.7626 H   0  0  0  0  0  0  0  0  0  0  0  0
   90.7121   97.0722  -45.2525 H   0  0  0  0  0  0  0  0  0  0  0  0
   91.0759  100.7771  -41.8150 H   0  0  0  0  0  0  0  0  0  0  0  0
   90.8140  102.3468  -42.5743 H   0  0  0  0  0  0  0  0  0  0  0  0
   90.3410  102.3535  -45.2498 H   0  0  0  0  0  0  0  0  0  0  0  0
   90.3260  100.7881  -46.0605 H   0  0  0  0  0  0  0  0  0  0  0  0
   93.2294  102.0551  -42.2340 H   0  0  0  0  0  0  0  0  0  0  0  0
   93.1910  100.4718  -43.0674 H   0  0  0  0  0  0  0  0  0  0  0  0
   92.7414  100.4787  -45.6114 H   0  0  0  0  0  0  0  0  0  0  0  0
   92.4928  102.0664  -46.3988 H   0  0  0  0  0  0  0  0  0  0  0  0
   89.4007  100.7257  -43.7079 H   0  0  0  0  0  0  0  0  0  0  0  0
   94.5810   92.1523  -43.5107 H   0  0  0  0  0  0  0  0  0  0  0  0
   94.1888   91.2614  -42.0289 H   0  0  0  0  0  0  0  0  0  0  0  0
   94.0577   93.0290  -42.0662 H   0  0  0  0  0  0  0  0  0  0  0  0
   91.7047  103.8209  -44.1075 H   0  0  0  0  0  0  0  0  0  0  0  0
   93.0675  104.0516  -45.2609 H   0  0  0  0  0  0  0  0  0  0  0  0
   93.3793  104.0450  -43.4879 H   0  0  0  0  0  0  0  0  0  0  0  0
   93.2168   88.9967  -47.0472 H   0  0  0  0  0  0  0  0  0  0  0  0
   93.2211   90.0170  -48.4935 H   0  0  0  0  0  0  0  0  0  0  0  0
   91.7888   91.9502  -42.2284 H   0  0  0  0  0  0  0  0  0  0  0  0
   92.3093   91.0566  -43.6574 H   0  0  0  0  0  0  0  0  0  0  0  0
   91.2327   88.1694  -47.7889 H   0  0  0  0  0  0  0  0  0  0  0  0
   91.2496   98.9149  -44.8003 H   0  0  0  0  0  0  0  0  0  0  0  0
   94.0184  102.0319  -44.5212 H   0  0  0  0  0  0  0  0  0  0  0  0
  1  2  3  0  0  0  0
  1 12  1  0  0  0  0
  2 25  1  0  0  0  0
  3  4  1  0  0  0  0
  3  5  2  0  0  0  0
  4  8  2  0  0  0  0
  5  9  1  0  0  0  0
  6  7  2  0  0  0  0
  6 14  1  0  0  0  0
  7 15  1  0  0  0  0
  8 16  1  0  0  0  0
  9 16  2  0  0  0  0
 10 12  2  0  0  0  0
 10 13  1  0  0  0  0
 11 13  1  0  0  0  0
 11 14  2  0  0  0  0
 12 27  1  0  0  0  0
 13 15  2  0  0  0  0
 14 17  1  0  0  0  0
 15 27  1  0  0  0  0
 16 28  1  0  0  0  0
 17 29  1  0  0  0  0
 17 31  2  0  0  0  0
 18 20  1  0  0  0  0
 18 22  1  0  0  0  0
 19 21  1  0  0  0  0
 19 22  1  0  0  0  0
 20 30  1  0  0  0  0
 21 30  1  0  0  0  0
 22 29  1  0  0  0  0
 23 26  1  0  0  0  0
 24 30  1  0  0  0  0
 25 28  1  0  0  0  0
 26 27  1  0  0  0  0
  3 32  1  0  0  0  0
  4 33  1  0  0  0  0
  5 34  1  0  0  0  0
  6 35  1  0  0  0  0
  7 36  1  0  0  0  0
  8 37  1  0  0  0  0
  9 38  1  0  0  0  0
 10 39  1  0  0  0  0
 11 40  1  0  0  0  0
 18 41  1  0  0  0  0
 18 42  1  0  0  0  0
 19 43  1  0  0  0  0
 19 44  1  0  0  0  0
 20 45  1  0  0  0  0
 20 46  1  0  0  0  0
 21 47  1  0  0  0  0
 21 48  1  0  0  0  0
 22 49  1  0  0  0  0
 23 50  1  0  0  0  0
 23 51  1  0  0  0  0
 23 52  1  0  0  0  0
 24 53  1  0  0  0  0
 24 54  1  0  0  0  0
 24 55  1  0  0  0  0
 25 56  1  0  0  0  0
 25 57  1  0  0  0  0
 26 58  1  0  0  0  0
 26 59  1  0  0  0  0
 28 60  1  0  0  0  0
 29 61  1  0  0  0  0
 30 62  1  0  0  0  0
M  CHG  1  30   1
M  END
> <POSIT::Probability>
0.230000

> <best_receptor_index>
0

> <POSIT receptor title>
9S9O-CLEAN(A)altA

> <POSIT::Method>
HYBRID

> <Result>
POOR

> <Pose>
1

> <POSIT::Relaxed>
FALSE

> <POSIT receptor filename>
../9S9O-CLEAN_A__DU__A1JMR_A-402.oedu

$$$$
Vu2025_03_1
  -OEChem-03232617403D

 59 62  0     0  0  0  0  0  0999 V2000
   90.8619   96.5529  -44.3907 C   0  0  0  0  0  0  0  0  0  0  0  0
   90.5565   97.6623  -44.0448 C   0  0  0  0  0  0  0  0  0  0  0  0
   93.5355  102.6220  -42.2784 C   0  0  0  0  0  0  0  0  0  0  0  0
   93.1976  102.0432  -43.5017 C   0  0  0  0  0  0  0  0  0  0  0  0
   92.9933  102.1187  -41.0959 C   0  0  0  0  0  0  0  0  0  0  0  0
   92.4876   90.8403  -45.2223 C   0  0  0  0  0  0  0  0  0  0  0  0
   92.2544   91.8121  -44.2456 C   0  0  0  0  0  0  0  0  0  0  0  0
   92.3181  100.9612  -43.5426 C   0  0  0  0  0  0  0  0  0  0  0  0
   92.1138  101.0367  -41.1369 C   0  0  0  0  0  0  0  0  0  0  0  0
   91.2956   94.7668  -46.0895 C   0  0  0  0  0  0  0  0  0  0  0  0
   91.9374   92.4060  -46.9951 C   0  0  0  0  0  0  0  0  0  0  0  0
   91.2246   95.2399  -44.7997 C   0  0  0  0  0  0  0  0  0  0  0  0
   91.6970   93.4027  -46.0282 C   0  0  0  0  0  0  0  0  0  0  0  0
   92.3321   91.1306  -46.5760 C   0  0  0  0  0  0  0  0  0  0  0  0
   91.8604   93.0835  -44.6786 C   0  0  0  0  0  0  0  0  0  0  0  0
   91.7759  100.4579  -42.3601 C   0  0  0  0  0  0  0  0  0  0  0  0
   90.1838   91.3198  -50.2545 C   0  0  0  0  0  0  0  0  0  0  0  0
   89.9132   89.1900  -48.9493 C   0  0  0  0  0  0  0  0  0  0  0  0
   88.6659   91.3419  -50.3997 C   0  0  0  0  0  0  0  0  0  0  0  0
   88.4102   89.3304  -49.1671 C   0  0  0  0  0  0  0  0  0  0  0  0
   90.5725   90.5644  -48.9882 C   0  0  0  0  0  0  0  0  0  0  0  0
   90.4060   93.6663  -41.8523 C   0  0  0  0  0  0  0  0  0  0  0  0
   90.1827   99.0135  -43.6247 C   0  0  0  0  0  0  0  0  0  0  0  0
   92.5873   90.0636  -47.5995 C   0  0  0  0  0  0  0  0  0  0  0  0
   91.6140   94.3105  -42.5101 C   0  0  0  0  0  0  0  0  0  0  0  0
   91.5668   94.2175  -43.9554 N   0  0  0  0  0  0  0  0  0  0  0  0
   90.9138   99.3979  -42.3998 N   0  0  0  0  0  0  0  0  0  0  0  0
   92.0480   90.4044  -48.9436 N   0  3  0  0  0  0  0  0  0  0  0  0
   88.1371   90.0151  -50.3904 O   0  0  0  0  0  0  0  0  0  0  0  0
   94.2195  103.4650  -42.2468 H   0  0  0  0  0  0  0  0  0  0  0  0
   93.6200  102.4349  -44.4225 H   0  0  0  0  0  0  0  0  0  0  0  0
   93.2564  102.5695  -40.1434 H   0  0  0  0  0  0  0  0  0  0  0  0
   92.7952   89.8448  -44.9101 H   0  0  0  0  0  0  0  0  0  0  0  0
   92.3768   91.5805  -43.1930 H   0  0  0  0  0  0  0  0  0  0  0  0
   92.0612  100.5188  -44.5017 H   0  0  0  0  0  0  0  0  0  0  0  0
   91.6972  100.6520  -40.2093 H   0  0  0  0  0  0  0  0  0  0  0  0
   91.0836   95.3346  -46.9862 H   0  0  0  0  0  0  0  0  0  0  0  0
   91.8160   92.6283  -48.0518 H   0  0  0  0  0  0  0  0  0  0  0  0
   90.6119   90.8144  -51.1299 H   0  0  0  0  0  0  0  0  0  0  0  0
   90.5740   92.3433  -50.2345 H   0  0  0  0  0  0  0  0  0  0  0  0
   90.1094   88.6891  -47.9949 H   0  0  0  0  0  0  0  0  0  0  0  0
   90.3259   88.5617  -49.7493 H   0  0  0  0  0  0  0  0  0  0  0  0
   88.1969   91.9264  -49.5993 H   0  0  0  0  0  0  0  0  0  0  0  0
   88.3898   91.8043  -51.3526 H   0  0  0  0  0  0  0  0  0  0  0  0
   87.9492   88.3395  -49.2294 H   0  0  0  0  0  0  0  0  0  0  0  0
   87.9351   89.8654  -48.3364 H   0  0  0  0  0  0  0  0  0  0  0  0
   90.2995   91.1439  -48.0987 H   0  0  0  0  0  0  0  0  0  0  0  0
   89.4754   94.1373  -42.1856 H   0  0  0  0  0  0  0  0  0  0  0  0
   90.4679   93.7662  -40.7642 H   0  0  0  0  0  0  0  0  0  0  0  0
   90.3459   92.6001  -42.0941 H   0  0  0  0  0  0  0  0  0  0  0  0
   89.1092   99.0739  -43.4225 H   0  0  0  0  0  0  0  0  0  0  0  0
   90.4189   99.7379  -44.4107 H   0  0  0  0  0  0  0  0  0  0  0  0
   92.1247   89.1152  -47.3059 H   0  0  0  0  0  0  0  0  0  0  0  0
   93.6607   89.8855  -47.7269 H   0  0  0  0  0  0  0  0  0  0  0  0
   92.5395   93.8329  -42.1707 H   0  0  0  0  0  0  0  0  0  0  0  0
   91.6793   95.3712  -42.2416 H   0  0  0  0  0  0  0  0  0  0  0  0
   90.7465   98.8396  -41.5890 H   0  0  0  0  0  0  0  0  0  0  0  0
   92.4935   91.2727  -49.2735 H   0  0  0  0  0  0  0  0  0  0  0  0
   92.3305   89.6750  -49.6132 H   0  0  0  0  0  0  0  0  0  0  0  0
  1  2  3  0  0  0  0
  1 12  1  0  0  0  0
  2 23  1  0  0  0  0
  3  4  1  0  0  0  0
  3  5  2  0  0  0  0
  4  8  2  0  0  0  0
  5  9  1  0  0  0  0
  6  7  2  0  0  0  0
  6 14  1  0  0  0  0
  7 15  1  0  0  0  0
  8 16  1  0  0  0  0
  9 16  2  0  0  0  0
 10 12  2  0  0  0  0
 10 13  1  0  0  0  0
 11 13  1  0  0  0  0
 11 14  2  0  0  0  0
 12 26  1  0  0  0  0
 13 15  2  0  0  0  0
 14 24  1  0  0  0  0
 15 26  1  0  0  0  0
 16 27  1  0  0  0  0
 17 19  1  0  0  0  0
 17 21  1  0  0  0  0
 18 20  1  0  0  0  0
 18 21  1  0  0  0  0
 19 29  1  0  0  0  0
 20 29  1  0  0  0  0
 21 28  1  0  0  0  0
 22 25  1  0  0  0  0
 23 27  1  0  0  0  0
 24 28  1  0  0  0  0
 25 26  1  0  0  0  0
  3 30  1  0  0  0  0
  4 31  1  0  0  0  0
  5 32  1  0  0  0  0
  6 33  1  0  0  0  0
  7 34  1  0  0  0  0
  8 35  1  0  0  0  0
  9 36  1  0  0  0  0
 10 37  1  0  0  0  0
 11 38  1  0  0  0  0
 17 39  1  0  0  0  0
 17 40  1  0  0  0  0
 18 41  1  0  0  0  0
 18 42  1  0  0  0  0
 19 43  1  0  0  0  0
 19 44  1  0  0  0  0
 20 45  1  0  0  0  0
 20 46  1  0  0  0  0
 21 47  1  0  0  0  0
 22 48  1  0  0  0  0
 22 49  1  0  0  0  0
 22 50  1  0  0  0  0
 23 51  1  0  0  0  0
 23 52  1  0  0  0  0
 24 53  1  0  0  0  0
 24 54  1  0  0  0  0
 25 55  1  0  0  0  0
 25 56  1  0  0  0  0
 27 57  1  0  0  0  0
 28 58  1  0  0  0  0
 28 59  1  0  0  0  0
M  CHG  1  28   1
M  END
> <POSIT::Probability>
0.180000

> <best_receptor_index>
0

> <POSIT receptor title>
9S9O-CLEAN(A)altA

> <POSIT::Method>
FRED

> <Result>
POOR

> <Pose>
1

> <POSIT::Relaxed>
FALSE

> <POSIT receptor filename>
../9S9O-CLEAN_A__DU__A1JMR_A-402.oedu

$$$$
Vu2025_13_1
  -OEChem-03232617403D

 69 72  0     0  0  0  0  0  0999 V2000
   92.0124   92.0724  -45.7627 C   0  0  0  0  0  0  0  0  0  0  0  0
   92.1702   91.1473  -46.5341 C   0  0  0  0  0  0  0  0  0  0  0  0
   91.2993   96.1111  -41.2645 C   0  0  0  0  0  0  0  0  0  0  0  0
   91.5663   94.7586  -41.5406 C   0  0  0  0  0  0  0  0  0  0  0  0
   91.1051   97.0195  -42.3218 C   0  0  0  0  0  0  0  0  0  0  0  0
   90.8522   91.3551  -49.6000 C   0  0  0  0  0  0  0  0  0  0  0  0
   90.1890   91.9531  -50.6773 C   0  0  0  0  0  0  0  0  0  0  0  0
   91.5827   94.4623  -45.1783 C   0  0  0  0  0  0  0  0  0  0  0  0
   88.6803   90.0457  -50.8241 C   0  0  0  0  0  0  0  0  0  0  0  0
   91.8362   93.1541  -44.8362 C   0  0  0  0  0  0  0  0  0  0  0  0
   91.4495   95.2224  -43.9320 C   0  0  0  0  0  0  0  0  0  0  0  0
   89.3235   89.4446  -49.7158 C   0  0  0  0  0  0  0  0  0  0  0  0
   91.6365   94.3225  -42.8789 C   0  0  0  0  0  0  0  0  0  0  0  0
   91.1876   96.5792  -43.6687 C   0  0  0  0  0  0  0  0  0  0  0  0
   90.4382   90.0953  -49.1089 C   0  0  0  0  0  0  0  0  0  0  0  0
   89.1137   91.3010  -51.3013 C   0  0  0  0  0  0  0  0  0  0  0  0
   92.3080   99.5115  -44.2587 C   0  0  0  0  0  0  0  0  0  0  0  0
   90.3845   99.4992  -45.9042 C   0  0  0  0  0  0  0  0  0  0  0  0
   92.2101  101.0387  -44.2025 C   0  0  0  0  0  0  0  0  0  0  0  0
   90.3365  101.0267  -45.7987 C   0  0  0  0  0  0  0  0  0  0  0  0
   90.9219   98.9116  -44.5912 C   0  0  0  0  0  0  0  0  0  0  0  0
   88.8592   88.0709  -49.2519 C   0  0  0  0  0  0  0  0  0  0  0  0
   91.7096  103.0244  -45.5269 C   0  0  0  0  0  0  0  0  0  0  0  0
   86.7920   91.3397  -53.1247 C   0  0  0  0  0  0  0  0  0  0  0  0
   92.3996   90.0285  -47.4561 C   0  0  0  0  0  0  0  0  0  0  0  0
   92.1755   91.8570  -42.6431 C   0  0  0  0  0  0  0  0  0  0  0  0
   93.6694   91.7768  -42.2693 C   0  0  0  0  0  0  0  0  0  0  0  0
   91.8693   93.0749  -43.4379 N   0  0  0  0  0  0  0  0  0  0  0  0
   91.0238   97.4482  -44.7433 N   0  0  0  0  0  0  0  0  0  0  0  0
   91.1327   89.4926  -48.0469 N   0  0  0  0  0  0  0  0  0  0  0  0
   91.6824  101.5576  -45.4840 N   0  3  0  0  0  0  0  0  0  0  0  0
   88.2254   93.4777  -52.5071 O   0  0  0  0  0  0  0  0  0  0  0  0
   89.3018   91.6418  -53.9020 O   0  0  0  0  0  0  0  0  0  0  0  0
   93.8704   90.6518  -41.5384 F   0  0  0  0  0  0  0  0  0  0  0  0
   94.0469   92.8536  -41.5290 F   0  0  0  0  0  0  0  0  0  0  0  0
   94.4308   91.7233  -43.3937 F   0  0  0  0  0  0  0  0  0  0  0  0
   88.4239   92.0508  -52.7978 S   0  0  0  0  0  0  0  0  0  0  0  0
   91.2434   96.4528  -40.2416 H   0  0  0  0  0  0  0  0  0  0  0  0
   91.7165   94.0583  -40.7322 H   0  0  0  0  0  0  0  0  0  0  0  0
   90.8923   98.0564  -42.1073 H   0  0  0  0  0  0  0  0  0  0  0  0
   91.6880   91.8606  -49.1392 H   0  0  0  0  0  0  0  0  0  0  0  0
   90.5066   92.9228  -51.0312 H   0  0  0  0  0  0  0  0  0  0  0  0
   91.4976   94.8565  -46.1802 H   0  0  0  0  0  0  0  0  0  0  0  0
   87.8552   89.5422  -51.3060 H   0  0  0  0  0  0  0  0  0  0  0  0
   93.0287   99.2197  -45.0367 H   0  0  0  0  0  0  0  0  0  0  0  0
   92.6467   99.1308  -43.2838 H   0  0  0  0  0  0  0  0  0  0  0  0
   89.3718   99.1127  -46.0914 H   0  0  0  0  0  0  0  0  0  0  0  0
   91.0466   99.2097  -46.7335 H   0  0  0  0  0  0  0  0  0  0  0  0
   91.5347  101.3310  -43.3850 H   0  0  0  0  0  0  0  0  0  0  0  0
   93.2093  101.4616  -44.0216 H   0  0  0  0  0  0  0  0  0  0  0  0
   89.9943  101.4470  -46.7559 H   0  0  0  0  0  0  0  0  0  0  0  0
   89.6362  101.3145  -45.0007 H   0  0  0  0  0  0  0  0  0  0  0  0
   90.2237   99.1550  -43.7768 H   0  0  0  0  0  0  0  0  0  0  0  0
   89.4081   87.2926  -49.8024 H   0  0  0  0  0  0  0  0  0  0  0  0
   89.0526   87.9632  -48.1744 H   0  0  0  0  0  0  0  0  0  0  0  0
   87.7813   87.9642  -49.4434 H   0  0  0  0  0  0  0  0  0  0  0  0
   91.3109  103.3709  -46.4918 H   0  0  0  0  0  0  0  0  0  0  0  0
   91.0927  103.4265  -44.7097 H   0  0  0  0  0  0  0  0  0  0  0  0
   92.7457  103.3754  -45.4111 H   0  0  0  0  0  0  0  0  0  0  0  0
   86.3693   91.7929  -54.0336 H   0  0  0  0  0  0  0  0  0  0  0  0
   86.8874   90.2532  -53.2672 H   0  0  0  0  0  0  0  0  0  0  0  0
   86.1271   91.5406  -52.2717 H   0  0  0  0  0  0  0  0  0  0  0  0
   93.0493   90.3745  -48.2734 H   0  0  0  0  0  0  0  0  0  0  0  0
   92.9013   89.2181  -46.9069 H   0  0  0  0  0  0  0  0  0  0  0  0
   91.9087   90.9692  -43.2352 H   0  0  0  0  0  0  0  0  0  0  0  0
   91.5780   91.8750  -41.7197 H   0  0  0  0  0  0  0  0  0  0  0  0
   91.8050   97.2888  -45.3468 H   0  0  0  0  0  0  0  0  0  0  0  0
   90.4806   89.4459  -47.2901 H   0  0  0  0  0  0  0  0  0  0  0  0
   92.2970  101.2330  -46.2030 H   0  0  0  0  0  0  0  0  0  0  0  0
  1  2  3  0  0  0  0
  1 10  1  0  0  0  0
  2 25  1  0  0  0  0
  3  4  2  0  0  0  0
  3  5  1  0  0  0  0
  4 13  1  0  0  0  0
  5 14  2  0  0  0  0
  6  7  2  0  0  0  0
  6 15  1  0  0  0  0
  7 16  1  0  0  0  0
  8 10  2  0  0  0  0
  8 11  1  0  0  0  0
  9 12  1  0  0  0  0
  9 16  2  0  0  0  0
 10 28  1  0  0  0  0
 11 13  2  0  0  0  0
 11 14  1  0  0  0  0
 12 15  2  0  0  0  0
 12 22  1  0  0  0  0
 13 28  1  0  0  0  0
 14 29  1  0  0  0  0
 15 30  1  0  0  0  0
 16 37  1  0  0  0  0
 17 19  1  0  0  0  0
 17 21  1  0  0  0  0
 18 20  1  0  0  0  0
 18 21  1  0  0  0  0
 19 31  1  0  0  0  0
 20 31  1  0  0  0  0
 21 29  1  0  0  0  0
 23 31  1  0  0  0  0
 24 37  1  0  0  0  0
 25 30  1  0  0  0  0
 26 27  1  0  0  0  0
 26 28  1  0  0  0  0
 27 34  1  0  0  0  0
 27 35  1  0  0  0  0
 27 36  1  0  0  0  0
 32 37  2  0  0  0  0
 33 37  2  0  0  0  0
  3 38  1  0  0  0  0
  4 39  1  0  0  0  0
  5 40  1  0  0  0  0
  6 41  1  0  0  0  0
  7 42  1  0  0  0  0
  8 43  1  0  0  0  0
  9 44  1  0  0  0  0
 17 45  1  0  0  0  0
 17 46  1  0  0  0  0
 18 47  1  0  0  0  0
 18 48  1  0  0  0  0
 19 49  1  0  0  0  0
 19 50  1  0  0  0  0
 20 51  1  0  0  0  0
 20 52  1  0  0  0  0
 21 53  1  0  0  0  0
 22 54  1  0  0  0  0
 22 55  1  0  0  0  0
 22 56  1  0  0  0  0
 23 57  1  0  0  0  0
 23 58  1  0  0  0  0
 23 59  1  0  0  0  0
 24 60  1  0  0  0  0
 24 61  1  0  0  0  0
 24 62  1  0  0  0  0
 25 63  1  0  0  0  0
 25 64  1  0  0  0  0
 26 65  1  0  0  0  0
 26 66  1  0  0  0  0
 29 67  1  0  0  0  0
 30 68  1  0  0  0  0
 31 69  1  0  0  0  0
M  CHG  1  31   1
M  END
> <POSIT::Probability>
0.900000

> <best_receptor_index>
0

> <POSIT receptor title>
9S9O-CLEAN(A)altA

> <POSIT::Method>
SHAPEFIT

> <Result>
GREAT

> <Pose>
1

> <POSIT::Relaxed>
FALSE

> <POSIT receptor filename>
../9S9O-CLEAN_A__DU__A1JMR_A-402.oedu

$$$$
Vu2025_12_1
  -OEChem-03232617403D

 69 72  0     0  0  0  0  0  0999 V2000
   92.0124   92.0724  -45.7627 C   0  0  0  0  0  0  0  0  0  0  0  0
   92.1702   91.1473  -46.5341 C   0  0  0  0  0  0  0  0  0  0  0  0
   91.2993   96.1111  -41.2645 C   0  0  0  0  0  0  0  0  0  0  0  0
   91.5663   94.7586  -41.5406 C   0  0  0  0  0  0  0  0  0  0  0  0
   91.1051   97.0195  -42.3218 C   0  0  0  0  0  0  0  0  0  0  0  0
   90.8522   91.3551  -49.6000 C   0  0  0  0  0  0  0  0  0  0  0  0
   90.1890   91.9531  -50.6773 C   0  0  0  0  0  0  0  0  0  0  0  0
   91.5827   94.4623  -45.1783 C   0  0  0  0  0  0  0  0  0  0  0  0
   88.6803   90.0457  -50.8241 C   0  0  0  0  0  0  0  0  0  0  0  0
   91.8362   93.1541  -44.8362 C   0  0  0  0  0  0  0  0  0  0  0  0
   91.4495   95.2224  -43.9320 C   0  0  0  0  0  0  0  0  0  0  0  0
   89.3235   89.4446  -49.7158 C   0  0  0  0  0  0  0  0  0  0  0  0
   91.6365   94.3225  -42.8789 C   0  0  0  0  0  0  0  0  0  0  0  0
   91.1876   96.5792  -43.6687 C   0  0  0  0  0  0  0  0  0  0  0  0
   90.4382   90.0953  -49.1089 C   0  0  0  0  0  0  0  0  0  0  0  0
   89.1137   91.3010  -51.3013 C   0  0  0  0  0  0  0  0  0  0  0  0
   92.3080   99.5115  -44.2587 C   0  0  0  0  0  0  0  0  0  0  0  0
   90.3845   99.4992  -45.9042 C   0  0  0  0  0  0  0  0  0  0  0  0
   92.2101  101.0387  -44.2025 C   0  0  0  0  0  0  0  0  0  0  0  0
   90.3365  101.0267  -45.7987 C   0  0  0  0  0  0  0  0  0  0  0  0
   90.9219   98.9116  -44.5912 C   0  0  0  0  0  0  0  0  0  0  0  0
   88.8592   88.0709  -49.2519 C   0  0  0  0  0  0  0  0  0  0  0  0
   91.7096  103.0244  -45.5269 C   0  0  0  0  0  0  0  0  0  0  0  0
   86.7920   91.3397  -53.1247 C   0  0  0  0  0  0  0  0  0  0  0  0
   92.3996   90.0285  -47.4561 C   0  0  0  0  0  0  0  0  0  0  0  0
   92.1755   91.8570  -42.6431 C   0  0  0  0  0  0  0  0  0  0  0  0
   93.6694   91.7768  -42.2693 C   0  0  0  0  0  0  0  0  0  0  0  0
   91.8693   93.0749  -43.4379 N   0  0  0  0  0  0  0  0  0  0  0  0
   91.0238   97.4482  -44.7433 N   0  0  0  0  0  0  0  0  0  0  0  0
   91.1327   89.4926  -48.0469 N   0  0  0  0  0  0  0  0  0  0  0  0
   91.6824  101.5576  -45.4840 N   0  3  0  0  0  0  0  0  0  0  0  0
   88.2254   93.4777  -52.5071 O   0  0  0  0  0  0  0  0  0  0  0  0
   89.3018   91.6418  -53.9020 O   0  0  0  0  0  0  0  0  0  0  0  0
   93.8704   90.6518  -41.5384 F   0  0  0  0  0  0  0  0  0  0  0  0
   94.0469   92.8536  -41.5290 F   0  0  0  0  0  0  0  0  0  0  0  0
   94.4308   91.7233  -43.3937 F   0  0  0  0  0  0  0  0  0  0  0  0
   88.4239   92.0508  -52.7978 S   0  0  0  0  0  0  0  0  0  0  0  0
   91.2434   96.4528  -40.2416 H   0  0  0  0  0  0  0  0  0  0  0  0
   91.7165   94.0583  -40.7322 H   0  0  0  0  0  0  0  0  0  0  0  0
   90.8923   98.0564  -42.1073 H   0  0  0  0  0  0  0  0  0  0  0  0
   91.6880   91.8606  -49.1392 H   0  0  0  0  0  0  0  0  0  0  0  0
   90.5066   92.9228  -51.0312 H   0  0  0  0  0  0  0  0  0  0  0  0
   91.4976   94.8565  -46.1802 H   0  0  0  0  0  0  0  0  0  0  0  0
   87.8552   89.5422  -51.3060 H   0  0  0  0  0  0  0  0  0  0  0  0
   93.0287   99.2197  -45.0367 H   0  0  0  0  0  0  0  0  0  0  0  0
   92.6467   99.1308  -43.2838 H   0  0  0  0  0  0  0  0  0  0  0  0
   89.3718   99.1127  -46.0914 H   0  0  0  0  0  0  0  0  0  0  0  0
   91.0466   99.2097  -46.7335 H   0  0  0  0  0  0  0  0  0  0  0  0
   91.5347  101.3310  -43.3850 H   0  0  0  0  0  0  0  0  0  0  0  0
   93.2093  101.4616  -44.0216 H   0  0  0  0  0  0  0  0  0  0  0  0
   89.9943  101.4470  -46.7559 H   0  0  0  0  0  0  0  0  0  0  0  0
   89.6362  101.3145  -45.0007 H   0  0  0  0  0  0  0  0  0  0  0  0
   90.2237   99.1550  -43.7768 H   0  0  0  0  0  0  0  0  0  0  0  0
   89.4081   87.2926  -49.8024 H   0  0  0  0  0  0  0  0  0  0  0  0
   89.0526   87.9632  -48.1744 H   0  0  0  0  0  0  0  0  0  0  0  0
   87.7813   87.9642  -49.4434 H   0  0  0  0  0  0  0  0  0  0  0  0
   91.3109  103.3709  -46.4918 H   0  0  0  0  0  0  0  0  0  0  0  0
   91.0927  103.4265  -44.7097 H   0  0  0  0  0  0  0  0  0  0  0  0
   92.7457  103.3754  -45.4111 H   0  0  0  0  0  0  0  0  0  0  0  0
   86.3693   91.7929  -54.0336 H   0  0  0  0  0  0  0  0  0  0  0  0
   86.8874   90.2532  -53.2672 H   0  0  0  0  0  0  0  0  0  0  0  0
   86.1271   91.5406  -52.2717 H   0  0  0  0  0  0  0  0  0  0  0  0
   93.0493   90.3745  -48.2734 H   0  0  0  0  0  0  0  0  0  0  0  0
   92.9013   89.2181  -46.9069 H   0  0  0  0  0  0  0  0  0  0  0  0
   91.9087   90.9692  -43.2352 H   0  0  0  0  0  0  0  0  0  0  0  0
   91.5780   91.8750  -41.7197 H   0  0  0  0  0  0  0  0  0  0  0  0
   91.8050   97.2888  -45.3468 H   0  0  0  0  0  0  0  0  0  0  0  0
   90.4806   89.4459  -47.2901 H   0  0  0  0  0  0  0  0  0  0  0  0
   92.2970  101.2330  -46.2030 H   0  0  0  0  0  0  0  0  0  0  0  0
  1  2  3  0  0  0  0
  1 10  1  0  0  0  0
  2 25  1  0  0  0  0
  3  4  2  0  0  0  0
  3  5  1  0  0  0  0
  4 13  1  0  0  0  0
  5 14  2  0  0  0  0
  6  7  2  0  0  0  0
  6 15  1  0  0  0  0
  7 16  1  0  0  0  0
  8 10  2  0  0  0  0
  8 11  1  0  0  0  0
  9 12  1  0  0  0  0
  9 16  2  0  0  0  0
 10 28  1  0  0  0  0
 11 13  2  0  0  0  0
 11 14  1  0  0  0  0
 12 15  2  0  0  0  0
 12 22  1  0  0  0  0
 13 28  1  0  0  0  0
 14 29  1  0  0  0  0
 15 30  1  0  0  0  0
 16 37  1  0  0  0  0
 17 19  1  0  0  0  0
 17 21  1  0  0  0  0
 18 20  1  0  0  0  0
 18 21  1  0  0  0  0
 19 31  1  0  0  0  0
 20 31  1  0  0  0  0
 21 29  1  0  0  0  0
 23 31  1  0  0  0  0
 24 37  1  0  0  0  0
 25 30  1  0  0  0  0
 26 27  1  0  0  0  0
 26 28  1  0  0  0  0
 27 34  1  0  0  0  0
 27 35  1  0  0  0  0
 27 36  1  0  0  0  0
 32 37  2  0  0  0  0
 33 37  2  0  0  0  0
  3 38  1  0  0  0  0
  4 39  1  0  0  0  0
  5 40  1  0  0  0  0
  6 41  1  0  0  0  0
  7 42  1  0  0  0  0
  8 43  1  0  0  0  0
  9 44  1  0  0  0  0
 17 45  1  0  0  0  0
 17 46  1  0  0  0  0
 18 47  1  0  0  0  0
 18 48  1  0  0  0  0
 19 49  1  0  0  0  0
 19 50  1  0  0  0  0
 20 51  1  0  0  0  0
 20 52  1  0  0  0  0
 21 53  1  0  0  0  0
 22 54  1  0  0  0  0
 22 55  1  0  0  0  0
 22 56  1  0  0  0  0
 23 57  1  0  0  0  0
 23 58  1  0  0  0  0
 23 59  1  0  0  0  0
 24 60  1  0  0  0  0
 24 61  1  0  0  0  0
 24 62  1  0  0  0  0
 25 63  1  0  0  0  0
 25 64  1  0  0  0  0
 26 65  1  0  0  0  0
 26 66  1  0  0  0  0
 29 67  1  0  0  0  0
 30 68  1  0  0  0  0
 31 69  1  0  0  0  0
M  CHG  1  31   1
M  END
> <POSIT::Probability>
0.900000

> <best_receptor_index>
0

> <POSIT receptor title>
9S9O-CLEAN(A)altA

> <POSIT::Method>
SHAPEFIT

> <Result>
GREAT

> <Pose>
1

> <POSIT::Relaxed>
FALSE

> <POSIT receptor filename>
../9S9O-CLEAN_A__DU__A1JMR_A-402.oedu

$$$$
Vu2025_04_1
  -OEChem-03232617403D

 61 64  0     0  0  0  0  0  0999 V2000
   91.2648   97.3483  -43.2838 C   0  0  0  0  0  0  0  0  0  0  0  0
   91.1115   98.4571  -42.8471 C   0  0  0  0  0  0  0  0  0  0  0  0
   92.2390   91.5792  -44.6017 C   0  0  0  0  0  0  0  0  0  0  0  0
   92.2324   92.5085  -43.5581 C   0  0  0  0  0  0  0  0  0  0  0  0
   92.7880  101.4595  -39.4848 C   0  0  0  0  0  0  0  0  0  0  0  0
   92.8211  102.6898  -38.8378 C   0  0  0  0  0  0  0  0  0  0  0  0
   91.2953   95.6343  -45.1074 C   0  0  0  0  0  0  0  0  0  0  0  0
   91.5899   93.2854  -46.2032 C   0  0  0  0  0  0  0  0  0  0  0  0
   91.0794  102.3103  -40.9040 C   0  0  0  0  0  0  0  0  0  0  0  0
   91.4476   96.0359  -43.8005 C   0  0  0  0  0  0  0  0  0  0  0  0
   91.5772   94.2406  -45.1671 C   0  0  0  0  0  0  0  0  0  0  0  0
   91.9231   91.9595  -45.9042 C   0  0  0  0  0  0  0  0  0  0  0  0
   91.8977   93.8311  -43.8711 C   0  0  0  0  0  0  0  0  0  0  0  0
   91.9036  101.2577  -40.5385 C   0  0  0  0  0  0  0  0  0  0  0  0
   91.9562  103.6783  -39.2791 C   0  0  0  0  0  0  0  0  0  0  0  0
   90.1926   89.3859  -49.1807 C   0  0  0  0  0  0  0  0  0  0  0  0
   91.1203   91.1798  -50.6846 C   0  0  0  0  0  0  0  0  0  0  0  0
   88.8087   89.9547  -49.4776 C   0  0  0  0  0  0  0  0  0  0  0  0
   89.6825   91.6436  -50.8941 C   0  0  0  0  0  0  0  0  0  0  0  0
   91.2957   90.4257  -49.3673 C   0  0  0  0  0  0  0  0  0  0  0  0
   91.9642  105.0106  -38.6071 C   0  0  0  0  0  0  0  0  0  0  0  0
   93.4283   95.5292  -41.2978 C   0  0  0  0  0  0  0  0  0  0  0  0
   90.9228   99.8078  -42.3161 C   0  0  0  0  0  0  0  0  0  0  0  0
   91.9362   90.9364  -47.0016 C   0  0  0  0  0  0  0  0  0  0  0  0
   92.0672   94.9460  -41.6358 C   0  0  0  0  0  0  0  0  0  0  0  0
   91.0834  103.5194  -40.2990 N   0  0  0  0  0  0  0  0  0  0  0  0
   91.8109   94.9414  -43.0620 N   0  0  0  0  0  0  0  0  0  0  0  0
   91.8490  100.0588  -41.1928 N   0  0  0  0  0  0  0  0  0  0  0  0
   91.2477   91.3981  -48.2371 N   0  3  0  0  0  0  0  0  0  0  0  0
   88.7733   90.5496  -50.7747 O   0  0  0  0  0  0  0  0  0  0  0  0
   92.4964   90.5453  -44.3829 H   0  0  0  0  0  0  0  0  0  0  0  0
   92.4790   92.2067  -42.5458 H   0  0  0  0  0  0  0  0  0  0  0  0
   93.4541  100.6652  -39.1591 H   0  0  0  0  0  0  0  0  0  0  0  0
   93.5059  102.8595  -38.0137 H   0  0  0  0  0  0  0  0  0  0  0  0
   91.0123   96.2689  -45.9373 H   0  0  0  0  0  0  0  0  0  0  0  0
   91.3429   93.5779  -47.2202 H   0  0  0  0  0  0  0  0  0  0  0  0
   90.3687  102.2135  -41.7192 H   0  0  0  0  0  0  0  0  0  0  0  0
   90.2046   89.0238  -48.1346 H   0  0  0  0  0  0  0  0  0  0  0  0
   90.3791   88.5029  -49.8195 H   0  0  0  0  0  0  0  0  0  0  0  0
   91.4394   90.5518  -51.5366 H   0  0  0  0  0  0  0  0  0  0  0  0
   91.7789   92.0695  -50.6867 H   0  0  0  0  0  0  0  0  0  0  0  0
   88.0362   89.1793  -49.4110 H   0  0  0  0  0  0  0  0  0  0  0  0
   88.5614   90.7315  -48.7470 H   0  0  0  0  0  0  0  0  0  0  0  0
   89.4159   92.3838  -50.1325 H   0  0  0  0  0  0  0  0  0  0  0  0
   89.5554   92.1177  -51.8748 H   0  0  0  0  0  0  0  0  0  0  0  0
   92.2804   89.9540  -49.3233 H   0  0  0  0  0  0  0  0  0  0  0  0
   92.6771  105.6939  -39.0862 H   0  0  0  0  0  0  0  0  0  0  0  0
   92.2647  104.9232  -37.5549 H   0  0  0  0  0  0  0  0  0  0  0  0
   90.9664  105.4639  -38.6478 H   0  0  0  0  0  0  0  0  0  0  0  0
   94.2325   94.9624  -41.7784 H   0  0  0  0  0  0  0  0  0  0  0  0
   93.5937   95.5051  -40.2162 H   0  0  0  0  0  0  0  0  0  0  0  0
   93.5069   96.5690  -41.6317 H   0  0  0  0  0  0  0  0  0  0  0  0
   89.8977   99.9446  -41.9590 H   0  0  0  0  0  0  0  0  0  0  0  0
   91.1113  100.5547  -43.0938 H   0  0  0  0  0  0  0  0  0  0  0  0
   91.4358   90.0139  -46.6882 H   0  0  0  0  0  0  0  0  0  0  0  0
   92.9610   90.6782  -47.2901 H   0  0  0  0  0  0  0  0  0  0  0  0
   91.2697   95.5193  -41.1509 H   0  0  0  0  0  0  0  0  0  0  0  0
   91.9897   93.9138  -41.2752 H   0  0  0  0  0  0  0  0  0  0  0  0
   92.4426   99.3005  -40.9286 H   0  0  0  0  0  0  0  0  0  0  0  0
   90.2647   91.6104  -48.0138 H   0  0  0  0  0  0  0  0  0  0  0  0
   91.6633   92.2902  -48.5393 H   0  0  0  0  0  0  0  0  0  0  0  0
  1  2  3  0  0  0  0
  1 10  1  0  0  0  0
  2 23  1  0  0  0  0
  3  4  2  0  0  0  0
  3 12  1  0  0  0  0
  4 13  1  0  0  0  0
  5  6  2  0  0  0  0
  5 14  1  0  0  0  0
  6 15  1  0  0  0  0
  7 10  2  0  0  0  0
  7 11  1  0  0  0  0
  8 11  1  0  0  0  0
  8 12  2  0  0  0  0
  9 14  2  0  0  0  0
  9 26  1  0  0  0  0
 10 27  1  0  0  0  0
 11 13  2  0  0  0  0
 12 24  1  0  0  0  0
 13 27  1  0  0  0  0
 14 28  1  0  0  0  0
 15 21  1  0  0  0  0
 15 26  2  0  0  0  0
 16 18  1  0  0  0  0
 16 20  1  0  0  0  0
 17 19  1  0  0  0  0
 17 20  1  0  0  0  0
 18 30  1  0  0  0  0
 19 30  1  0  0  0  0
 20 29  1  0  0  0  0
 22 25  1  0  0  0  0
 23 28  1  0  0  0  0
 24 29  1  0  0  0  0
 25 27  1  0  0  0  0
  3 31  1  0  0  0  0
  4 32  1  0  0  0  0
  5 33  1  0  0  0  0
  6 34  1  0  0  0  0
  7 35  1  0  0  0  0
  8 36  1  0  0  0  0
  9 37  1  0  0  0  0
 16 38  1  0  0  0  0
 16 39  1  0  0  0  0
 17 40  1  0  0  0  0
 17 41  1  0  0  0  0
 18 42  1  0  0  0  0
 18 43  1  0  0  0  0
 19 44  1  0  0  0  0
 19 45  1  0  0  0  0
 20 46  1  0  0  0  0
 21 47  1  0  0  0  0
 21 48  1  0  0  0  0
 21 49  1  0  0  0  0
 22 50  1  0  0  0  0
 22 51  1  0  0  0  0
 22 52  1  0  0  0  0
 23 53  1  0  0  0  0
 23 54  1  0  0  0  0
 24 55  1  0  0  0  0
 24 56  1  0  0  0  0
 25 57  1  0  0  0  0
 25 58  1  0  0  0  0
 28 59  1  0  0  0  0
 29 60  1  0  0  0  0
 29 61  1  0  0  0  0
M  CHG  1  29   1
M  END
> <POSIT::Probability>
0.240000

> <best_receptor_index>
0

> <POSIT receptor title>
9S9O-CLEAN(A)altA

> <POSIT::Method>
FRED

> <Result>
POOR

> <Pose>
1

> <POSIT::Relaxed>
FALSE

> <POSIT receptor filename>
../9S9O-CLEAN_A__DU__A1JMR_A-402.oedu

$$$$
Vu2025_11_1
  -OEChem-03232617403D

 66 69  0     0  0  0  0  0  0999 V2000
   91.9577   92.1135  -45.8224 C   0  0  0  0  0  0  0  0  0  0  0  0
   92.1643   91.2131  -46.6114 C   0  0  0  0  0  0  0  0  0  0  0  0
   91.2933   96.0987  -41.2681 C   0  0  0  0  0  0  0  0  0  0  0  0
   91.5254   94.7437  -41.5621 C   0  0  0  0  0  0  0  0  0  0  0  0
   91.1129   97.0241  -42.3130 C   0  0  0  0  0  0  0  0  0  0  0  0
   90.8522   91.2802  -49.7579 C   0  0  0  0  0  0  0  0  0  0  0  0
   89.3242   89.3839  -49.5882 C   0  0  0  0  0  0  0  0  0  0  0  0
   90.0125   91.8725  -50.7118 C   0  0  0  0  0  0  0  0  0  0  0  0
   88.4746   89.9861  -50.5421 C   0  0  0  0  0  0  0  0  0  0  0  0
   91.5233   94.4927  -45.2030 C   0  0  0  0  0  0  0  0  0  0  0  0
   91.7592   93.1767  -44.8787 C   0  0  0  0  0  0  0  0  0  0  0  0
   91.4078   95.2394  -43.9468 C   0  0  0  0  0  0  0  0  0  0  0  0
   91.5801   94.3224  -42.9059 C   0  0  0  0  0  0  0  0  0  0  0  0
   90.4994   90.0475  -49.1633 C   0  0  0  0  0  0  0  0  0  0  0  0
   91.1755   96.5984  -43.6654 C   0  0  0  0  0  0  0  0  0  0  0  0
   88.8037   91.2505  -51.0810 C   0  0  0  0  0  0  0  0  0  0  0  0
   92.3152   99.5348  -44.2309 C   0  0  0  0  0  0  0  0  0  0  0  0
   90.3766   99.5455  -45.8649 C   0  0  0  0  0  0  0  0  0  0  0  0
   92.2327  101.0630  -44.1763 C   0  0  0  0  0  0  0  0  0  0  0  0
   90.3535  101.0739  -45.7611 C   0  0  0  0  0  0  0  0  0  0  0  0
   90.9229   98.9459  -44.5596 C   0  0  0  0  0  0  0  0  0  0  0  0
   91.7738  103.0438  -45.5241 C   0  0  0  0  0  0  0  0  0  0  0  0
   87.0477   91.2145  -53.4446 C   0  0  0  0  0  0  0  0  0  0  0  0
   92.4845   90.1315  -47.5503 C   0  0  0  0  0  0  0  0  0  0  0  0
   92.0804   91.8450  -42.7047 C   0  0  0  0  0  0  0  0  0  0  0  0
   93.5708   91.7538  -42.3192 C   0  0  0  0  0  0  0  0  0  0  0  0
   91.7873   93.0775  -43.4815 N   0  0  0  0  0  0  0  0  0  0  0  0
   91.0162   97.4830  -44.7280 N   0  0  0  0  0  0  0  0  0  0  0  0
   91.2705   89.4898  -48.1359 N   0  0  0  0  0  0  0  0  0  0  0  0
   91.7118  101.5791  -45.4607 N   0  3  0  0  0  0  0  0  0  0  0  0
   86.4089   92.3540  -51.1530 O   0  0  0  0  0  0  0  0  0  0  0  0
   88.2559   93.3903  -52.5658 O   0  0  0  0  0  0  0  0  0  0  0  0
   93.7705   90.5975  -41.6389 F   0  0  0  0  0  0  0  0  0  0  0  0
   93.9343   92.7961  -41.5251 F   0  0  0  0  0  0  0  0  0  0  0  0
   94.3444   91.7569  -43.4368 F   0  0  0  0  0  0  0  0  0  0  0  0
   87.5783   92.2015  -52.0286 S   0  0  0  0  0  0  0  0  0  0  0  0
   91.2533   96.4295  -40.2408 H   0  0  0  0  0  0  0  0  0  0  0  0
   91.6611   94.0299  -40.7630 H   0  0  0  0  0  0  0  0  0  0  0  0
   90.9260   98.0630  -42.0847 H   0  0  0  0  0  0  0  0  0  0  0  0
   91.7734   91.7684  -49.4760 H   0  0  0  0  0  0  0  0  0  0  0  0
   89.0763   88.4144  -49.1820 H   0  0  0  0  0  0  0  0  0  0  0  0
   90.2941   92.8109  -51.1661 H   0  0  0  0  0  0  0  0  0  0  0  0
   87.5742   89.4810  -50.8594 H   0  0  0  0  0  0  0  0  0  0  0  0
   91.4387   94.9005  -46.1994 H   0  0  0  0  0  0  0  0  0  0  0  0
   93.0315   99.2354  -45.0102 H   0  0  0  0  0  0  0  0  0  0  0  0
   92.6527   99.1523  -43.2563 H   0  0  0  0  0  0  0  0  0  0  0  0
   89.3553   99.1753  -46.0380 H   0  0  0  0  0  0  0  0  0  0  0  0
   91.0224   99.2457  -46.7034 H   0  0  0  0  0  0  0  0  0  0  0  0
   91.5588  101.3641  -43.3607 H   0  0  0  0  0  0  0  0  0  0  0  0
   93.2354  101.4773  -43.9953 H   0  0  0  0  0  0  0  0  0  0  0  0
   90.0090  101.4990  -46.7154 H   0  0  0  0  0  0  0  0  0  0  0  0
   89.6663  101.3744  -44.9565 H   0  0  0  0  0  0  0  0  0  0  0  0
   90.2316   99.1845  -43.7378 H   0  0  0  0  0  0  0  0  0  0  0  0
   91.3785  103.3865  -46.4917 H   0  0  0  0  0  0  0  0  0  0  0  0
   91.1710  103.4718  -44.7095 H   0  0  0  0  0  0  0  0  0  0  0  0
   92.8185  103.3713  -45.4181 H   0  0  0  0  0  0  0  0  0  0  0  0
   86.3050   91.7787  -54.0278 H   0  0  0  0  0  0  0  0  0  0  0  0
   87.9168   90.9877  -54.0796 H   0  0  0  0  0  0  0  0  0  0  0  0
   86.5982   90.2756  -53.0892 H   0  0  0  0  0  0  0  0  0  0  0  0
   93.0915   90.5459  -48.3687 H   0  0  0  0  0  0  0  0  0  0  0  0
   93.0640   89.3639  -47.0164 H   0  0  0  0  0  0  0  0  0  0  0  0
   91.8157   90.9682  -43.3140 H   0  0  0  0  0  0  0  0  0  0  0  0
   91.4746   91.8499  -41.7865 H   0  0  0  0  0  0  0  0  0  0  0  0
   91.7962   97.3263  -45.3339 H   0  0  0  0  0  0  0  0  0  0  0  0
   90.6416   89.3540  -47.3703 H   0  0  0  0  0  0  0  0  0  0  0  0
   92.3148  101.2306  -46.1782 H   0  0  0  0  0  0  0  0  0  0  0  0
  1  2  3  0  0  0  0
  1 11  1  0  0  0  0
  2 24  1  0  0  0  0
  3  4  1  0  0  0  0
  3  5  2  0  0  0  0
  4 13  2  0  0  0  0
  5 15  1  0  0  0  0
  6  8  2  0  0  0  0
  6 14  1  0  0  0  0
  7  9  1  0  0  0  0
  7 14  2  0  0  0  0
  8 16  1  0  0  0  0
  9 16  2  0  0  0  0
 10 11  2  0  0  0  0
 10 12  1  0  0  0  0
 11 27  1  0  0  0  0
 12 13  1  0  0  0  0
 12 15  2  0  0  0  0
 13 27  1  0  0  0  0
 14 29  1  0  0  0  0
 15 28  1  0  0  0  0
 16 36  1  0  0  0  0
 17 19  1  0  0  0  0
 17 21  1  0  0  0  0
 18 20  1  0  0  0  0
 18 21  1  0  0  0  0
 19 30  1  0  0  0  0
 20 30  1  0  0  0  0
 21 28  1  0  0  0  0
 22 30  1  0  0  0  0
 23 36  1  0  0  0  0
 24 29  1  0  0  0  0
 25 26  1  0  0  0  0
 25 27  1  0  0  0  0
 26 33  1  0  0  0  0
 26 34  1  0  0  0  0
 26 35  1  0  0  0  0
 31 36  2  0  0  0  0
 32 36  2  0  0  0  0
  3 37  1  0  0  0  0
  4 38  1  0  0  0  0
  5 39  1  0  0  0  0
  6 40  1  0  0  0  0
  7 41  1  0  0  0  0
  8 42  1  0  0  0  0
  9 43  1  0  0  0  0
 10 44  1  0  0  0  0
 17 45  1  0  0  0  0
 17 46  1  0  0  0  0
 18 47  1  0  0  0  0
 18 48  1  0  0  0  0
 19 49  1  0  0  0  0
 19 50  1  0  0  0  0
 20 51  1  0  0  0  0
 20 52  1  0  0  0  0
 21 53  1  0  0  0  0
 22 54  1  0  0  0  0
 22 55  1  0  0  0  0
 22 56  1  0  0  0  0
 23 57  1  0  0  0  0
 23 58  1  0  0  0  0
 23 59  1  0  0  0  0
 24 60  1  0  0  0  0
 24 61  1  0  0  0  0
 25 62  1  0  0  0  0
 25 63  1  0  0  0  0
 28 64  1  0  0  0  0
 29 65  1  0  0  0  0
 30 66  1  0  0  0  0
M  CHG  1  30   1
M  END
> <POSIT::Probability>
0.900000

> <best_receptor_index>
0

> <POSIT receptor title>
9S9O-CLEAN(A)altA

> <POSIT::Method>
SHAPEFIT

> <Result>
GREAT

> <Pose>
1

> <POSIT::Relaxed>
FALSE

> <POSIT receptor filename>
../9S9O-CLEAN_A__DU__A1JMR_A-402.oedu

$$$$
Vu2025_09_1
  -OEChem-03232617403D

 64 67  0     0  0  0  0  0  0999 V2000
   91.5979   95.0907  -44.9479 C   0  0  0  0  0  0  0  0  0  0  0  0
   91.4426   96.2458  -44.6561 C   0  0  0  0  0  0  0  0  0  0  0  0
   94.0023  102.1702  -39.4026 C   0  0  0  0  0  0  0  0  0  0  0  0
   92.8272   89.2579  -45.6058 C   0  0  0  0  0  0  0  0  0  0  0  0
   92.9925   90.3525  -44.7532 C   0  0  0  0  0  0  0  0  0  0  0  0
   92.1380   89.3831  -46.8101 C   0  0  0  0  0  0  0  0  0  0  0  0
   91.6053   98.8573  -40.7714 C   0  0  0  0  0  0  0  0  0  0  0  0
   92.0204   99.9950  -40.0884 C   0  0  0  0  0  0  0  0  0  0  0  0
   91.3362   93.0905  -46.4293 C   0  0  0  0  0  0  0  0  0  0  0  0
   91.7039  100.1005  -42.7968 C   0  0  0  0  0  0  0  0  0  0  0  0
   91.7823   93.7233  -45.2921 C   0  0  0  0  0  0  0  0  0  0  0  0
   91.7463   91.7297  -46.3559 C   0  0  0  0  0  0  0  0  0  0  0  0
   92.4414   91.5749  -45.1547 C   0  0  0  0  0  0  0  0  0  0  0  0
   91.4416   98.9023  -42.1514 C   0  0  0  0  0  0  0  0  0  0  0  0
   91.5917   90.6113  -47.1993 C   0  0  0  0  0  0  0  0  0  0  0  0
   92.2569  101.1441  -40.8256 C   0  0  0  0  0  0  0  0  0  0  0  0
   89.5903   88.6844  -48.7996 C   0  0  0  0  0  0  0  0  0  0  0  0
   90.4145   90.0814  -50.7122 C   0  0  0  0  0  0  0  0  0  0  0  0
   88.2289   89.3433  -48.9953 C   0  0  0  0  0  0  0  0  0  0  0  0
   89.0077   90.6640  -50.8027 C   0  0  0  0  0  0  0  0  0  0  0  0
   90.7301   89.5735  -49.3030 C   0  0  0  0  0  0  0  0  0  0  0  0
   92.9368  103.6292  -41.0412 C   0  0  0  0  0  0  0  0  0  0  0  0
   91.6498  102.8346  -39.0664 C   0  0  0  0  0  0  0  0  0  0  0  0
   91.2528   97.6534  -44.3028 C   0  0  0  0  0  0  0  0  0  0  0  0
   93.0703   93.0718  -43.2489 C   0  0  0  0  0  0  0  0  0  0  0  0
   92.7026  102.3840  -40.1249 C   0  0  0  0  0  0  0  0  0  0  0  0
   92.2419   92.5644  -42.0860 C   0  0  0  0  0  0  0  0  0  0  0  0
   95.0070  101.9778  -38.8548 N   0  0  0  0  0  0  0  0  0  0  0  0
   92.1087  101.2261  -42.1668 N   0  0  0  0  0  0  0  0  0  0  0  0
   92.4478   92.8012  -44.5291 N   0  0  0  0  0  0  0  0  0  0  0  0
   90.9142   90.6962  -48.4033 N   0  0  0  0  0  0  0  0  0  0  0  0
   91.0345   97.7995  -42.8489 N   0  0  0  0  0  0  0  0  0  0  0  0
   88.0379   89.7149  -50.3599 O   0  0  0  0  0  0  0  0  0  0  0  0
   92.8118   92.8626  -40.8993 F   0  0  0  0  0  0  0  0  0  0  0  0
   92.0679   91.2263  -42.1439 F   0  0  0  0  0  0  0  0  0  0  0  0
   91.0154   93.1343  -42.1018 F   0  0  0  0  0  0  0  0  0  0  0  0
   93.2430   88.2939  -45.3235 H   0  0  0  0  0  0  0  0  0  0  0  0
   93.5300   90.2485  -43.8168 H   0  0  0  0  0  0  0  0  0  0  0  0
   92.0288   88.5092  -47.4487 H   0  0  0  0  0  0  0  0  0  0  0  0
   91.4111   97.9421  -40.2188 H   0  0  0  0  0  0  0  0  0  0  0  0
   92.1509   99.9730  -39.0116 H   0  0  0  0  0  0  0  0  0  0  0  0
   90.7742   93.5521  -47.2310 H   0  0  0  0  0  0  0  0  0  0  0  0
   91.5946  100.1973  -43.8727 H   0  0  0  0  0  0  0  0  0  0  0  0
   89.7307   88.4872  -47.7226 H   0  0  0  0  0  0  0  0  0  0  0  0
   89.6091   87.7072  -49.3089 H   0  0  0  0  0  0  0  0  0  0  0  0
   90.5307   89.2708  -51.4503 H   0  0  0  0  0  0  0  0  0  0  0  0
   91.1380   90.8697  -50.9849 H   0  0  0  0  0  0  0  0  0  0  0  0
   87.4154   88.6791  -48.6804 H   0  0  0  0  0  0  0  0  0  0  0  0
   88.1657   90.2530  -48.3897 H   0  0  0  0  0  0  0  0  0  0  0  0
   88.9287   91.5461  -50.1595 H   0  0  0  0  0  0  0  0  0  0  0  0
   88.7709   90.9779  -51.8259 H   0  0  0  0  0  0  0  0  0  0  0  0
   91.6541   88.9909  -49.3272 H   0  0  0  0  0  0  0  0  0  0  0  0
   92.0500  103.8939  -41.6309 H   0  0  0  0  0  0  0  0  0  0  0  0
   93.1937  104.5129  -40.4446 H   0  0  0  0  0  0  0  0  0  0  0  0
   93.7533  103.4471  -41.7497 H   0  0  0  0  0  0  0  0  0  0  0  0
   90.6774  103.0050  -39.5441 H   0  0  0  0  0  0  0  0  0  0  0  0
   91.5067  102.0741  -38.2895 H   0  0  0  0  0  0  0  0  0  0  0  0
   91.9352  103.7598  -38.5503 H   0  0  0  0  0  0  0  0  0  0  0  0
   90.3894   98.0724  -44.8281 H   0  0  0  0  0  0  0  0  0  0  0  0
   92.1340   98.2402  -44.5813 H   0  0  0  0  0  0  0  0  0  0  0  0
   94.0656   92.6124  -43.2210 H   0  0  0  0  0  0  0  0  0  0  0  0
   93.2341   94.1509  -43.1412 H   0  0  0  0  0  0  0  0  0  0  0  0
   90.5246   91.5915  -48.6736 H   0  0  0  0  0  0  0  0  0  0  0  0
   90.5681   97.0442  -42.3917 H   0  0  0  0  0  0  0  0  0  0  0  0
  1  2  3  0  0  0  0
  1 11  1  0  0  0  0
  2 24  1  0  0  0  0
  3 26  1  0  0  0  0
  3 28  3  0  0  0  0
  4  5  2  0  0  0  0
  4  6  1  0  0  0  0
  5 13  1  0  0  0  0
  6 15  2  0  0  0  0
  7  8  2  0  0  0  0
  7 14  1  0  0  0  0
  8 16  1  0  0  0  0
  9 11  2  0  0  0  0
  9 12  1  0  0  0  0
 10 14  2  0  0  0  0
 10 29  1  0  0  0  0
 11 30  1  0  0  0  0
 12 13  2  0  0  0  0
 12 15  1  0  0  0  0
 13 30  1  0  0  0  0
 14 32  1  0  0  0  0
 15 31  1  0  0  0  0
 16 26  1  0  0  0  0
 16 29  2  0  0  0  0
 17 19  1  0  0  0  0
 17 21  1  0  0  0  0
 18 20  1  0  0  0  0
 18 21  1  0  0  0  0
 19 33  1  0  0  0  0
 20 33  1  0  0  0  0
 21 31  1  0  0  0  0
 22 26  1  0  0  0  0
 23 26  1  0  0  0  0
 24 32  1  0  0  0  0
 25 27  1  0  0  0  0
 25 30  1  0  0  0  0
 27 34  1  0  0  0  0
 27 35  1  0  0  0  0
 27 36  1  0  0  0  0
  4 37  1  0  0  0  0
  5 38  1  0  0  0  0
  6 39  1  0  0  0  0
  7 40  1  0  0  0  0
  8 41  1  0  0  0  0
  9 42  1  0  0  0  0
 10 43  1  0  0  0  0
 17 44  1  0  0  0  0
 17 45  1  0  0  0  0
 18 46  1  0  0  0  0
 18 47  1  0  0  0  0
 19 48  1  0  0  0  0
 19 49  1  0  0  0  0
 20 50  1  0  0  0  0
 20 51  1  0  0  0  0
 21 52  1  0  0  0  0
 22 53  1  0  0  0  0
 22 54  1  0  0  0  0
 22 55  1  0  0  0  0
 23 56  1  0  0  0  0
 23 57  1  0  0  0  0
 23 58  1  0  0  0  0
 24 59  1  0  0  0  0
 24 60  1  0  0  0  0
 25 61  1  0  0  0  0
 25 62  1  0  0  0  0
 31 63  1  0  0  0  0
 32 64  1  0  0  0  0
M  END
> <POSIT::Probability>
0.240000

> <best_receptor_index>
0

> <POSIT receptor title>
9S9O-CLEAN(A)altA

> <POSIT::Method>
FRED

> <Result>
POOR

> <Pose>
1

> <POSIT::Relaxed>
FALSE

> <POSIT receptor filename>
../9S9O-CLEAN_A__DU__A1JMR_A-402.oedu

$$$$
Vu2025_21_1
  -OEChem-03232617403D

 70 73  0     1  0  0  0  0  0999 V2000
   91.9410   92.1152  -45.7567 C   0  0  0  0  0  0  0  0  0  0  0  0
   92.1863   91.2263  -46.5438 C   0  0  0  0  0  0  0  0  0  0  0  0
   91.2782   96.0981  -41.2243 C   0  0  0  0  0  0  0  0  0  0  0  0
   91.5032   94.7387  -41.5102 C   0  0  0  0  0  0  0  0  0  0  0  0
   91.0873   97.0176  -42.2742 C   0  0  0  0  0  0  0  0  0  0  0  0
   90.9398   91.4681  -49.6666 C   0  0  0  0  0  0  0  0  0  0  0  0
   90.1924   92.0407  -50.7057 C   0  0  0  0  0  0  0  0  0  0  0  0
   91.4569   94.4753  -45.1477 C   0  0  0  0  0  0  0  0  0  0  0  0
   88.6815   90.1260  -50.6910 C   0  0  0  0  0  0  0  0  0  0  0  0
   91.7073   93.1660  -44.8198 C   0  0  0  0  0  0  0  0  0  0  0  0
   91.3501   95.2197  -43.8939 C   0  0  0  0  0  0  0  0  0  0  0  0
   91.5364   94.3081  -42.8511 C   0  0  0  0  0  0  0  0  0  0  0  0
   91.1281   96.5782  -43.6217 C   0  0  0  0  0  0  0  0  0  0  0  0
   90.5658   90.2163  -49.1267 C   0  0  0  0  0  0  0  0  0  0  0  0
   89.4196   89.5474  -49.6190 C   0  0  0  0  0  0  0  0  0  0  0  0
   89.0761   91.3687  -51.2350 C   0  0  0  0  0  0  0  0  0  0  0  0
   92.3358   99.4644  -44.2845 C   0  0  0  0  0  0  0  0  0  0  0  0
   92.3022  100.9964  -44.2682 C   0  0  0  0  0  0  0  0  0  0  0  0
   90.3645  101.0221  -45.7876 C   0  0  0  0  0  0  0  0  0  0  0  0
   90.9183   98.9099  -44.5649 C   0  0  1  0  0  0  0  0  0  0  0  0
   90.3483   99.4925  -45.8705 C   0  0  2  0  0  0  0  0  0  0  0  0
   91.8121  102.9754  -45.6061 C   0  0  0  0  0  0  0  0  0  0  0  0
   87.9450   87.6190  -49.5408 C   0  0  0  0  0  0  0  0  0  0  0  0
   86.6213   91.3552  -52.8946 C   0  0  0  0  0  0  0  0  0  0  0  0
   92.5297   90.1725  -47.4914 C   0  0  0  0  0  0  0  0  0  0  0  0
   92.0260   91.8236  -42.6592 C   0  0  0  0  0  0  0  0  0  0  0  0
   93.5250   91.6993  -42.3227 C   0  0  0  0  0  0  0  0  0  0  0  0
   91.7337   93.0621  -43.4261 N   0  0  0  0  0  0  0  0  0  0  0  0
   90.9625   97.4433  -44.6962 N   0  0  0  0  0  0  0  0  0  0  0  0
   91.3147   89.6001  -48.1144 N   0  0  0  0  0  0  0  0  0  0  0  0
   91.7400  101.5114  -45.5372 N   0  3  1  0  0  0  0  0  0  0  0  0
   88.0983   93.5073  -52.4613 O   0  0  0  0  0  0  0  0  0  0  0  0
   89.0675   91.6185  -53.8617 O   0  0  0  0  0  0  0  0  0  0  0  0
   89.0946   88.3265  -49.0294 O   0  0  0  0  0  0  0  0  0  0  0  0
   91.0932   99.0890  -46.9379 F   0  0  0  0  0  0  0  0  0  0  0  0
   93.7206   90.5360  -41.6532 F   0  0  0  0  0  0  0  0  0  0  0  0
   93.9289   92.7322  -41.5363 F   0  0  0  0  0  0  0  0  0  0  0  0
   94.2674   91.6901  -43.4616 F   0  0  0  0  0  0  0  0  0  0  0  0
   88.2752   92.0697  -52.7101 S   0  0  0  0  0  0  0  0  0  0  0  0
   91.2518   96.4366  -40.1991 H   0  0  0  0  0  0  0  0  0  0  0  0
   91.6493   94.0308  -40.7077 H   0  0  0  0  0  0  0  0  0  0  0  0
   90.9095   98.0595  -42.0523 H   0  0  0  0  0  0  0  0  0  0  0  0
   91.8043   91.9853  -49.2774 H   0  0  0  0  0  0  0  0  0  0  0  0
   90.4760   93.0044  -51.1023 H   0  0  0  0  0  0  0  0  0  0  0  0
   91.3574   94.8795  -46.1442 H   0  0  0  0  0  0  0  0  0  0  0  0
   87.8181   89.6136  -51.0890 H   0  0  0  0  0  0  0  0  0  0  0  0
   93.0236   99.1229  -45.0722 H   0  0  0  0  0  0  0  0  0  0  0  0
   92.6849   99.0968  -43.3083 H   0  0  0  0  0  0  0  0  0  0  0  0
   91.6769  101.3367  -43.4297 H   0  0  0  0  0  0  0  0  0  0  0  0
   93.3253  101.3805  -44.1422 H   0  0  0  0  0  0  0  0  0  0  0  0
   89.9983  101.4404  -46.7367 H   0  0  0  0  0  0  0  0  0  0  0  0
   89.7090  101.3475  -44.9663 H   0  0  0  0  0  0  0  0  0  0  0  0
   90.2571   99.1894  -43.7314 H   0  0  0  0  0  0  0  0  0  0  0  0
   89.3048   99.1598  -45.9725 H   0  0  0  0  0  0  0  0  0  0  0  0
   91.3863  103.3195  -46.5602 H   0  0  0  0  0  0  0  0  0  0  0  0
   91.2415  103.4101  -44.7721 H   0  0  0  0  0  0  0  0  0  0  0  0
   92.8626  103.2943  -45.5372 H   0  0  0  0  0  0  0  0  0  0  0  0
   87.8133   86.6804  -48.9825 H   0  0  0  0  0  0  0  0  0  0  0  0
   87.0477   88.2444  -49.4233 H   0  0  0  0  0  0  0  0  0  0  0  0
   88.0977   87.3934  -50.6065 H   0  0  0  0  0  0  0  0  0  0  0  0
   86.1359   91.7784  -53.7864 H   0  0  0  0  0  0  0  0  0  0  0  0
   86.7037   90.2639  -53.0051 H   0  0  0  0  0  0  0  0  0  0  0  0
   86.0196   91.5891  -52.0039 H   0  0  0  0  0  0  0  0  0  0  0  0
   93.1733   90.5926  -48.2783 H   0  0  0  0  0  0  0  0  0  0  0  0
   93.0715   89.3752  -46.9614 H   0  0  0  0  0  0  0  0  0  0  0  0
   91.7224   90.9531  -43.2593 H   0  0  0  0  0  0  0  0  0  0  0  0
   91.4509   91.8412  -41.7217 H   0  0  0  0  0  0  0  0  0  0  0  0
   91.7178   97.2483  -45.3219 H   0  0  0  0  0  0  0  0  0  0  0  0
   90.6738   89.4506  -47.3616 H   0  0  0  0  0  0  0  0  0  0  0  0
   92.3136  101.1549  -46.2747 H   0  0  0  0  0  0  0  0  0  0  0  0
  1  2  3  0  0  0  0
  1 10  1  0  0  0  0
  2 25  1  0  0  0  0
  3  4  1  0  0  0  0
  3  5  2  0  0  0  0
  4 12  2  0  0  0  0
  5 13  1  0  0  0  0
  6  7  2  0  0  0  0
  6 14  1  0  0  0  0
  7 16  1  0  0  0  0
  8 10  2  0  0  0  0
  8 11  1  0  0  0  0
  9 15  1  0  0  0  0
  9 16  2  0  0  0  0
 10 28  1  0  0  0  0
 11 12  1  0  0  0  0
 11 13  2  0  0  0  0
 12 28  1  0  0  0  0
 13 29  1  0  0  0  0
 14 15  2  0  0  0  0
 14 30  1  0  0  0  0
 15 34  1  0  0  0  0
 16 39  1  0  0  0  0
 17 18  1  0  0  0  0
 17 20  1  0  0  0  0
 18 31  1  0  0  0  0
 19 21  1  0  0  0  0
 19 31  1  0  0  0  0
 20 21  1  0  0  0  0
 20 29  1  0  0  0  0
 21 35  1  0  0  0  0
 22 31  1  0  0  0  0
 23 34  1  0  0  0  0
 24 39  1  0  0  0  0
 25 30  1  0  0  0  0
 26 27  1  0  0  0  0
 26 28  1  0  0  0  0
 27 36  1  0  0  0  0
 27 37  1  0  0  0  0
 27 38  1  0  0  0  0
 32 39  2  0  0  0  0
 33 39  2  0  0  0  0
  3 40  1  0  0  0  0
  4 41  1  0  0  0  0
  5 42  1  0  0  0  0
  6 43  1  0  0  0  0
  7 44  1  0  0  0  0
  8 45  1  0  0  0  0
  9 46  1  0  0  0  0
 17 47  1  0  0  0  0
 17 48  1  0  0  0  0
 18 49  1  0  0  0  0
 18 50  1  0  0  0  0
 19 51  1  0  0  0  0
 19 52  1  0  0  0  0
 20 53  1  0  0  0  0
 21 54  1  0  0  0  0
 22 55  1  0  0  0  0
 22 56  1  0  0  0  0
 22 57  1  0  0  0  0
 23 58  1  0  0  0  0
 23 59  1  0  0  0  0
 23 60  1  0  0  0  0
 24 61  1  0  0  0  0
 24 62  1  0  0  0  0
 24 63  1  0  0  0  0
 25 64  1  0  0  0  0
 25 65  1  0  0  0  0
 26 66  1  0  0  0  0
 26 67  1  0  0  0  0
 29 68  1  0  0  0  0
 30 69  1  0  0  0  0
 31 70  1  0  0  0  0
M  CHG  1  31   1
M  END
> <POSIT::Probability>
0.940000

> <best_receptor_index>
0

> <POSIT receptor title>
9S9O-CLEAN(A)altA

> <POSIT::Method>
SHAPEFIT

> <Result>
GREAT

> <Pose>
1

> <POSIT::Relaxed>
FALSE

> <POSIT receptor filename>
../9S9O-CLEAN_A__DU__A1JMR_A-402.oedu

$$$$
Vu2025_22_1
  -OEChem-03232617403D

 70 73  0     1  0  0  0  0  0999 V2000
   91.9673   92.1106  -45.7642 C   0  0  0  0  0  0  0  0  0  0  0  0
   92.1986   91.2194  -46.5530 C   0  0  0  0  0  0  0  0  0  0  0  0
   91.3099   96.1015  -41.2391 C   0  0  0  0  0  0  0  0  0  0  0  0
   91.5466   94.7437  -41.5222 C   0  0  0  0  0  0  0  0  0  0  0  0
   91.1060   97.0160  -42.2907 C   0  0  0  0  0  0  0  0  0  0  0  0
   90.9004   91.4674  -49.6466 C   0  0  0  0  0  0  0  0  0  0  0  0
   90.1438   92.0426  -50.6765 C   0  0  0  0  0  0  0  0  0  0  0  0
   91.4890   94.4714  -45.1588 C   0  0  0  0  0  0  0  0  0  0  0  0
   88.6290   90.1312  -50.6497 C   0  0  0  0  0  0  0  0  0  0  0  0
   91.7455   93.1642  -44.8284 C   0  0  0  0  0  0  0  0  0  0  0  0
   91.3829   95.2181  -43.9071 C   0  0  0  0  0  0  0  0  0  0  0  0
   91.5795   94.3105  -42.8622 C   0  0  0  0  0  0  0  0  0  0  0  0
   91.1487   96.5748  -43.6381 C   0  0  0  0  0  0  0  0  0  0  0  0
   90.5329   90.2136  -49.1079 C   0  0  0  0  0  0  0  0  0  0  0  0
   89.3800   89.5474  -49.5890 C   0  0  0  0  0  0  0  0  0  0  0  0
   89.0226   91.3726  -51.1971 C   0  0  0  0  0  0  0  0  0  0  0  0
   90.3579   99.4880  -45.8832 C   0  0  0  0  0  0  0  0  0  0  0  0
   90.3498  101.0163  -45.7956 C   0  0  0  0  0  0  0  0  0  0  0  0
   92.2633  101.0029  -44.2463 C   0  0  0  0  0  0  0  0  0  0  0  0
   90.9155   98.9027  -44.5754 C   0  0  2  0  0  0  0  0  0  0  0  0
   92.3236   99.4710  -44.2629 C   0  0  1  0  0  0  0  0  0  0  0  0
   91.7764  102.9818  -45.5849 C   0  0  0  0  0  0  0  0  0  0  0  0
   87.9181   87.6103  -49.5156 C   0  0  0  0  0  0  0  0  0  0  0  0
   86.5481   91.4409  -52.8271 C   0  0  0  0  0  0  0  0  0  0  0  0
   92.5229   90.1632  -47.5047 C   0  0  0  0  0  0  0  0  0  0  0  0
   92.0751   91.8270  -42.6662 C   0  0  0  0  0  0  0  0  0  0  0  0
   93.5725   91.7064  -42.3236 C   0  0  0  0  0  0  0  0  0  0  0  0
   91.7819   93.0644  -43.4348 N   0  0  0  0  0  0  0  0  0  0  0  0
   90.9721   97.4376  -44.7138 N   0  0  0  0  0  0  0  0  0  0  0  0
   91.2963   89.5939  -48.1086 N   0  0  0  0  0  0  0  0  0  0  0  0
   91.7157  101.5170  -45.5227 N   0  3  2  0  0  0  0  0  0  0  0  0
   88.1746   93.5050  -52.5263 O   0  0  0  0  0  0  0  0  0  0  0  0
   88.9924   91.4775  -53.8280 O   0  0  0  0  0  0  0  0  0  0  0  0
   89.0632   88.3232  -49.0027 O   0  0  0  0  0  0  0  0  0  0  0  0
   93.2242   99.0612  -45.1986 F   0  0  0  0  0  0  0  0  0  0  0  0
   93.7715   90.5344  -41.6703 F   0  0  0  0  0  0  0  0  0  0  0  0
   93.9656   92.7310  -41.5209 F   0  0  0  0  0  0  0  0  0  0  0  0
   94.3211   91.7166  -43.4584 F   0  0  0  0  0  0  0  0  0  0  0  0
   88.2486   92.0470  -52.6968 S   0  0  0  0  0  0  0  0  0  0  0  0
   91.2845   96.4426  -40.2147 H   0  0  0  0  0  0  0  0  0  0  0  0
   91.7019   94.0392  -40.7185 H   0  0  0  0  0  0  0  0  0  0  0  0
   90.9167   98.0562  -42.0705 H   0  0  0  0  0  0  0  0  0  0  0  0
   91.7677   91.9843  -49.2632 H   0  0  0  0  0  0  0  0  0  0  0  0
   90.4239   93.0073  -51.0731 H   0  0  0  0  0  0  0  0  0  0  0  0
   91.3850   94.8727  -46.1561 H   0  0  0  0  0  0  0  0  0  0  0  0
   87.7573   89.6238  -51.0358 H   0  0  0  0  0  0  0  0  0  0  0  0
   89.3317   99.1242  -46.0396 H   0  0  0  0  0  0  0  0  0  0  0  0
   90.9911   99.1724  -46.7255 H   0  0  0  0  0  0  0  0  0  0  0  0
   89.9929  101.4335  -46.7487 H   0  0  0  0  0  0  0  0  0  0  0  0
   89.6780  101.3306  -44.9833 H   0  0  0  0  0  0  0  0  0  0  0  0
   91.6176  101.3302  -43.4181 H   0  0  0  0  0  0  0  0  0  0  0  0
   93.2775  101.4030  -44.1008 H   0  0  0  0  0  0  0  0  0  0  0  0
   90.2382   99.1701  -43.7509 H   0  0  0  0  0  0  0  0  0  0  0  0
   92.6178   99.1252  -43.2610 H   0  0  0  0  0  0  0  0  0  0  0  0
   92.8037  103.3159  -45.3775 H   0  0  0  0  0  0  0  0  0  0  0  0
   91.4768  103.3188  -46.5882 H   0  0  0  0  0  0  0  0  0  0  0  0
   91.0937  103.4090  -44.8356 H   0  0  0  0  0  0  0  0  0  0  0  0
   87.7924   86.6692  -48.9602 H   0  0  0  0  0  0  0  0  0  0  0  0
   87.0170   88.2297  -49.3961 H   0  0  0  0  0  0  0  0  0  0  0  0
   88.0719   87.3887  -50.5821 H   0  0  0  0  0  0  0  0  0  0  0  0
   86.0811   91.8499  -53.7352 H   0  0  0  0  0  0  0  0  0  0  0  0
   86.5537   90.3422  -52.8809 H   0  0  0  0  0  0  0  0  0  0  0  0
   85.9759   91.7619  -51.9442 H   0  0  0  0  0  0  0  0  0  0  0  0
   93.1557   90.5802  -48.3021 H   0  0  0  0  0  0  0  0  0  0  0  0
   93.0701   89.3646  -46.9823 H   0  0  0  0  0  0  0  0  0  0  0  0
   91.7762   90.9555  -43.2673 H   0  0  0  0  0  0  0  0  0  0  0  0
   91.4962   91.8434  -41.7310 H   0  0  0  0  0  0  0  0  0  0  0  0
   91.7275   97.2507  -45.3418 H   0  0  0  0  0  0  0  0  0  0  0  0
   90.6673   89.4448  -47.3457 H   0  0  0  0  0  0  0  0  0  0  0  0
   92.3040  101.1682  -46.2523 H   0  0  0  0  0  0  0  0  0  0  0  0
  1  2  3  0  0  0  0
  1 10  1  0  0  0  0
  2 25  1  0  0  0  0
  3  4  1  0  0  0  0
  3  5  2  0  0  0  0
  4 12  2  0  0  0  0
  5 13  1  0  0  0  0
  6  7  2  0  0  0  0
  6 14  1  0  0  0  0
  7 16  1  0  0  0  0
  8 10  2  0  0  0  0
  8 11  1  0  0  0  0
  9 15  1  0  0  0  0
  9 16  2  0  0  0  0
 10 28  1  0  0  0  0
 11 12  1  0  0  0  0
 11 13  2  0  0  0  0
 12 28  1  0  0  0  0
 13 29  1  0  0  0  0
 14 15  2  0  0  0  0
 14 30  1  0  0  0  0
 15 34  1  0  0  0  0
 16 39  1  0  0  0  0
 17 18  1  0  0  0  0
 17 20  1  0  0  0  0
 18 31  1  0  0  0  0
 19 21  1  0  0  0  0
 19 31  1  0  0  0  0
 20 21  1  0  0  0  0
 20 29  1  0  0  0  0
 21 35  1  0  0  0  0
 22 31  1  0  0  0  0
 23 34  1  0  0  0  0
 24 39  1  0  0  0  0
 25 30  1  0  0  0  0
 26 27  1  0  0  0  0
 26 28  1  0  0  0  0
 27 36  1  0  0  0  0
 27 37  1  0  0  0  0
 27 38  1  0  0  0  0
 32 39  2  0  0  0  0
 33 39  2  0  0  0  0
  3 40  1  0  0  0  0
  4 41  1  0  0  0  0
  5 42  1  0  0  0  0
  6 43  1  0  0  0  0
  7 44  1  0  0  0  0
  8 45  1  0  0  0  0
  9 46  1  0  0  0  0
 17 47  1  0  0  0  0
 17 48  1  0  0  0  0
 18 49  1  0  0  0  0
 18 50  1  0  0  0  0
 19 51  1  0  0  0  0
 19 52  1  0  0  0  0
 20 53  1  0  0  0  0
 21 54  1  0  0  0  0
 22 55  1  0  0  0  0
 22 56  1  0  0  0  0
 22 57  1  0  0  0  0
 23 58  1  0  0  0  0
 23 59  1  0  0  0  0
 23 60  1  0  0  0  0
 24 61  1  0  0  0  0
 24 62  1  0  0  0  0
 24 63  1  0  0  0  0
 25 64  1  0  0  0  0
 25 65  1  0  0  0  0
 26 66  1  0  0  0  0
 26 67  1  0  0  0  0
 29 68  1  0  0  0  0
 30 69  1  0  0  0  0
 31 70  1  0  0  0  0
M  CHG  1  31   1
M  END
> <POSIT::Probability>
0.940000

> <best_receptor_index>
0

> <POSIT receptor title>
9S9O-CLEAN(A)altA

> <POSIT::Method>
SHAPEFIT

> <Result>
GREAT

> <Pose>
1

> <POSIT::Relaxed>
FALSE

> <POSIT receptor filename>
../9S9O-CLEAN_A__DU__A1JMR_A-402.oedu

$$$$
Vu2025_06_1
  -OEChem-03232617403D

 68 71  0     0  0  0  0  0  0999 V2000
   91.3238   96.4109  -43.9803 C   0  0  0  0  0  0  0  0  0  0  0  0
   91.1076   97.5014  -43.5247 C   0  0  0  0  0  0  0  0  0  0  0  0
   94.9399  103.7766  -39.6414 C   0  0  0  0  0  0  0  0  0  0  0  0
   92.3530   90.6725  -45.3870 C   0  0  0  0  0  0  0  0  0  0  0  0
   92.1007   91.5411  -44.3219 C   0  0  0  0  0  0  0  0  0  0  0  0
   91.4998  101.3565  -41.6856 C   0  0  0  0  0  0  0  0  0  0  0  0
   91.9967  102.5482  -41.1697 C   0  0  0  0  0  0  0  0  0  0  0  0
   91.7786   94.8019  -45.8427 C   0  0  0  0  0  0  0  0  0  0  0  0
   92.2550   92.5030  -46.9797 C   0  0  0  0  0  0  0  0  0  0  0  0
   92.7990  100.1793  -40.0783 C   0  0  0  0  0  0  0  0  0  0  0  0
   91.5808   95.1199  -44.5189 C   0  0  0  0  0  0  0  0  0  0  0  0
   92.0001   93.3983  -45.9217 C   0  0  0  0  0  0  0  0  0  0  0  0
   92.4293   91.1438  -46.6958 C   0  0  0  0  0  0  0  0  0  0  0  0
   91.9287   92.8979  -44.6199 C   0  0  0  0  0  0  0  0  0  0  0  0
   91.9033  100.1450  -41.1354 C   0  0  0  0  0  0  0  0  0  0  0  0
   92.8880  102.4752  -40.1114 C   0  0  0  0  0  0  0  0  0  0  0  0
   90.6065   90.9419  -49.7996 C   0  0  0  0  0  0  0  0  0  0  0  0
   89.1459   89.1698  -48.7802 C   0  0  0  0  0  0  0  0  0  0  0  0
   89.3292   91.6098  -50.2977 C   0  0  0  0  0  0  0  0  0  0  0  0
   87.9497   89.9361  -49.3351 C   0  0  0  0  0  0  0  0  0  0  0  0
   90.3099   90.1265  -48.5456 C   0  0  0  0  0  0  0  0  0  0  0  0
   90.1648   93.3279  -41.9467 C   0  0  0  0  0  0  0  0  0  0  0  0
   92.9408  105.0587  -40.1970 C   0  0  0  0  0  0  0  0  0  0  0  0
   93.0801  103.8601  -38.0218 C   0  0  0  0  0  0  0  0  0  0  0  0
   90.8426   98.8301  -42.9712 C   0  0  0  0  0  0  0  0  0  0  0  0
   92.6985   90.1842  -47.8174 C   0  0  0  0  0  0  0  0  0  0  0  0
   91.5233   93.8743  -42.3504 C   0  0  0  0  0  0  0  0  0  0  0  0
   93.4421  103.7346  -39.5334 C   0  0  0  0  0  0  0  0  0  0  0  0
   96.0961  103.7833  -39.7385 N   0  0  0  0  0  0  0  0  0  0  0  0
   93.3032  101.3174  -39.5507 N   0  0  0  0  0  0  0  0  0  0  0  0
   91.6730   93.9651  -43.7888 N   0  0  0  0  0  0  0  0  0  0  0  0
   91.4314   98.9581  -41.6222 N   0  0  0  0  0  0  0  0  0  0  0  0
   91.5172   89.3496  -48.1665 N   0  3  0  0  0  0  0  0  0  0  0  0
   88.3063   90.6392  -50.5261 O   0  0  0  0  0  0  0  0  0  0  0  0
   92.4907   89.6135  -45.1801 H   0  0  0  0  0  0  0  0  0  0  0  0
   92.0422   91.1686  -43.3049 H   0  0  0  0  0  0  0  0  0  0  0  0
   90.8001  101.3834  -42.5166 H   0  0  0  0  0  0  0  0  0  0  0  0
   91.6904  103.4999  -41.5909 H   0  0  0  0  0  0  0  0  0  0  0  0
   91.7673   95.4984  -46.6711 H   0  0  0  0  0  0  0  0  0  0  0  0
   92.3140   92.8666  -48.0020 H   0  0  0  0  0  0  0  0  0  0  0  0
   93.1504   99.2664  -39.6069 H   0  0  0  0  0  0  0  0  0  0  0  0
   90.9853   90.2788  -50.5881 H   0  0  0  0  0  0  0  0  0  0  0  0
   91.3733   91.6989  -49.6014 H   0  0  0  0  0  0  0  0  0  0  0  0
   88.8670   88.6585  -47.8523 H   0  0  0  0  0  0  0  0  0  0  0  0
   89.4406   88.4044  -49.5097 H   0  0  0  0  0  0  0  0  0  0  0  0
   88.9669   92.3598  -49.5849 H   0  0  0  0  0  0  0  0  0  0  0  0
   89.5219   92.1207  -51.2464 H   0  0  0  0  0  0  0  0  0  0  0  0
   87.1455   89.2379  -49.5882 H   0  0  0  0  0  0  0  0  0  0  0  0
   87.5535   90.6450  -48.5985 H   0  0  0  0  0  0  0  0  0  0  0  0
   90.0940   90.7902  -47.7004 H   0  0  0  0  0  0  0  0  0  0  0  0
   89.3551   93.9599  -42.3260 H   0  0  0  0  0  0  0  0  0  0  0  0
   90.0816   93.2853  -40.8562 H   0  0  0  0  0  0  0  0  0  0  0  0
   90.0121   92.3176  -42.3401 H   0  0  0  0  0  0  0  0  0  0  0  0
   91.8475  105.1520  -40.1830 H   0  0  0  0  0  0  0  0  0  0  0  0
   93.3385  105.9359  -39.6724 H   0  0  0  0  0  0  0  0  0  0  0  0
   93.2564  105.1163  -41.2452 H   0  0  0  0  0  0  0  0  0  0  0  0
   91.9920  103.8347  -37.8867 H   0  0  0  0  0  0  0  0  0  0  0  0
   93.5045  103.0369  -37.4348 H   0  0  0  0  0  0  0  0  0  0  0  0
   93.4510  104.7894  -37.5717 H   0  0  0  0  0  0  0  0  0  0  0  0
   89.7664   99.0132  -42.8998 H   0  0  0  0  0  0  0  0  0  0  0  0
   91.2745   99.6051  -43.6124 H   0  0  0  0  0  0  0  0  0  0  0  0
   93.5078   89.4924  -47.5603 H   0  0  0  0  0  0  0  0  0  0  0  0
   92.9904   90.7141  -48.7306 H   0  0  0  0  0  0  0  0  0  0  0  0
   92.3263   93.2358  -41.9666 H   0  0  0  0  0  0  0  0  0  0  0  0
   91.6764   94.8753  -41.9308 H   0  0  0  0  0  0  0  0  0  0  0  0
   91.4691   98.1249  -41.0731 H   0  0  0  0  0  0  0  0  0  0  0  0
   91.7701   88.7171  -48.9392 H   0  0  0  0  0  0  0  0  0  0  0  0
   91.2909   88.7385  -47.3694 H   0  0  0  0  0  0  0  0  0  0  0  0
  1  2  3  0  0  0  0
  1 11  1  0  0  0  0
  2 25  1  0  0  0  0
  3 28  1  0  0  0  0
  3 29  3  0  0  0  0
  4  5  2  0  0  0  0
  4 13  1  0  0  0  0
  5 14  1  0  0  0  0
  6  7  2  0  0  0  0
  6 15  1  0  0  0  0
  7 16  1  0  0  0  0
  8 11  2  0  0  0  0
  8 12  1  0  0  0  0
  9 12  1  0  0  0  0
  9 13  2  0  0  0  0
 10 15  2  0  0  0  0
 10 30  1  0  0  0  0
 11 31  1  0  0  0  0
 12 14  2  0  0  0  0
 13 26  1  0  0  0  0
 14 31  1  0  0  0  0
 15 32  1  0  0  0  0
 16 28  1  0  0  0  0
 16 30  2  0  0  0  0
 17 19  1  0  0  0  0
 17 21  1  0  0  0  0
 18 20  1  0  0  0  0
 18 21  1  0  0  0  0
 19 34  1  0  0  0  0
 20 34  1  0  0  0  0
 21 33  1  0  0  0  0
 22 27  1  0  0  0  0
 23 28  1  0  0  0  0
 24 28  1  0  0  0  0
 25 32  1  0  0  0  0
 26 33  1  0  0  0  0
 27 31  1  0  0  0  0
  4 35  1  0  0  0  0
  5 36  1  0  0  0  0
  6 37  1  0  0  0  0
  7 38  1  0  0  0  0
  8 39  1  0  0  0  0
  9 40  1  0  0  0  0
 10 41  1  0  0  0  0
 17 42  1  0  0  0  0
 17 43  1  0  0  0  0
 18 44  1  0  0  0  0
 18 45  1  0  0  0  0
 19 46  1  0  0  0  0
 19 47  1  0  0  0  0
 20 48  1  0  0  0  0
 20 49  1  0  0  0  0
 21 50  1  0  0  0  0
 22 51  1  0  0  0  0
 22 52  1  0  0  0  0
 22 53  1  0  0  0  0
 23 54  1  0  0  0  0
 23 55  1  0  0  0  0
 23 56  1  0  0  0  0
 24 57  1  0  0  0  0
 24 58  1  0  0  0  0
 24 59  1  0  0  0  0
 25 60  1  0  0  0  0
 25 61  1  0  0  0  0
 26 62  1  0  0  0  0
 26 63  1  0  0  0  0
 27 64  1  0  0  0  0
 27 65  1  0  0  0  0
 32 66  1  0  0  0  0
 33 67  1  0  0  0  0
 33 68  1  0  0  0  0
M  CHG  1  33   1
M  END
> <POSIT::Probability>
0.240000

> <best_receptor_index>
0

> <POSIT receptor title>
9S9O-CLEAN(A)altA

> <POSIT::Method>
FRED

> <Result>
POOR

> <Pose>
1

> <POSIT::Relaxed>
FALSE

> <POSIT receptor filename>
../9S9O-CLEAN_A__DU__A1JMR_A-402.oedu

$$$$
Vu2025_07_1
  -OEChem-03232617403D

 68 71  0     0  0  0  0  0  0999 V2000
   91.2135   95.8796  -44.0727 C   0  0  0  0  0  0  0  0  0  0  0  0
   91.0660   96.9083  -43.4697 C   0  0  0  0  0  0  0  0  0  0  0  0
   93.2489  104.2932  -39.7710 C   0  0  0  0  0  0  0  0  0  0  0  0
   92.5061   90.5030  -46.3941 C   0  0  0  0  0  0  0  0  0  0  0  0
   92.7523   91.3475  -45.3084 C   0  0  0  0  0  0  0  0  0  0  0  0
   91.1680  100.5573  -41.1650 C   0  0  0  0  0  0  0  0  0  0  0  0
   91.3097  101.7133  -40.4056 C   0  0  0  0  0  0  0  0  0  0  0  0
   90.8146   94.3193  -45.9886 C   0  0  0  0  0  0  0  0  0  0  0  0
   91.0344   92.1445  -47.4123 C   0  0  0  0  0  0  0  0  0  0  0  0
   93.3999   99.9687  -40.5909 C   0  0  0  0  0  0  0  0  0  0  0  0
   91.3892   94.6621  -44.7866 C   0  0  0  0  0  0  0  0  0  0  0  0
   91.2681   93.0137  -46.3278 C   0  0  0  0  0  0  0  0  0  0  0  0
   91.6609   90.8933  -47.4306 C   0  0  0  0  0  0  0  0  0  0  0  0
   92.1196   92.5960  -45.3029 C   0  0  0  0  0  0  0  0  0  0  0  0
   92.2279   99.6630  -41.2647 C   0  0  0  0  0  0  0  0  0  0  0  0
   92.5223  101.9275  -39.7702 C   0  0  0  0  0  0  0  0  0  0  0  0
   88.3281   88.0630  -49.7235 C   0  0  0  0  0  0  0  0  0  0  0  0
   89.7342   89.5557  -51.1848 C   0  0  0  0  0  0  0  0  0  0  0  0
   87.1847   89.0489  -49.9418 C   0  0  0  0  0  0  0  0  0  0  0  0
   88.5088   90.4542  -51.3181 C   0  0  0  0  0  0  0  0  0  0  0  0
   89.6963   88.7163  -49.9086 C   0  0  0  0  0  0  0  0  0  0  0  0
   91.4182  103.7170  -38.2659 C   0  0  0  0  0  0  0  0  0  0  0  0
   93.7197  102.9040  -37.7868 C   0  0  0  0  0  0  0  0  0  0  0  0
   90.8841   98.1612  -42.7354 C   0  0  0  0  0  0  0  0  0  0  0  0
   91.4149   89.9615  -48.5806 C   0  0  0  0  0  0  0  0  0  0  0  0
   92.9522   93.5836  -43.1582 C   0  0  0  0  0  0  0  0  0  0  0  0
   92.7097  103.1583  -38.9475 C   0  0  0  0  0  0  0  0  0  0  0  0
   92.2983   92.7420  -42.0811 C   0  0  0  0  0  0  0  0  0  0  0  0
   93.6644  105.1526  -40.4307 N   0  0  0  0  0  0  0  0  0  0  0  0
   93.5744  101.0819  -39.8437 N   0  0  0  0  0  0  0  0  0  0  0  0
   92.1747   93.6164  -44.3805 N   0  0  0  0  0  0  0  0  0  0  0  0
   92.1172   98.5188  -42.0043 N   0  0  0  0  0  0  0  0  0  0  0  0
   89.9815   89.5946  -48.7370 N   0  3  0  0  0  0  0  0  0  0  0  0
   87.3063   89.6925  -51.2100 O   0  0  0  0  0  0  0  0  0  0  0  0
   93.0107   92.7567  -40.9346 F   0  0  0  0  0  0  0  0  0  0  0  0
   92.1557   91.4567  -42.4704 F   0  0  0  0  0  0  0  0  0  0  0  0
   91.0650   93.2199  -41.7987 F   0  0  0  0  0  0  0  0  0  0  0  0
   92.9869   89.5277  -46.4208 H   0  0  0  0  0  0  0  0  0  0  0  0
   93.4112   91.0383  -44.5041 H   0  0  0  0  0  0  0  0  0  0  0  0
   90.2284  100.3640  -41.6756 H   0  0  0  0  0  0  0  0  0  0  0  0
   90.4905  102.4195  -40.3207 H   0  0  0  0  0  0  0  0  0  0  0  0
   90.1399   94.9361  -46.5681 H   0  0  0  0  0  0  0  0  0  0  0  0
   90.3749   92.4449  -48.2220 H   0  0  0  0  0  0  0  0  0  0  0  0
   94.2616   99.3093  -40.6303 H   0  0  0  0  0  0  0  0  0  0  0  0
   88.2512   87.6607  -48.6949 H   0  0  0  0  0  0  0  0  0  0  0  0
   88.2140   87.2007  -50.4060 H   0  0  0  0  0  0  0  0  0  0  0  0
   89.8206   88.9053  -52.0745 H   0  0  0  0  0  0  0  0  0  0  0  0
   90.6376   90.1952  -51.1747 H   0  0  0  0  0  0  0  0  0  0  0  0
   86.2104   88.5499  -49.8780 H   0  0  0  0  0  0  0  0  0  0  0  0
   87.2101   89.8246  -49.1697 H   0  0  0  0  0  0  0  0  0  0  0  0
   88.5052   91.1994  -50.5160 H   0  0  0  0  0  0  0  0  0  0  0  0
   88.5131   90.9951  -52.2721 H   0  0  0  0  0  0  0  0  0  0  0  0
   90.4849   87.9601  -49.9230 H   0  0  0  0  0  0  0  0  0  0  0  0
   90.9217  102.9756  -37.6271 H   0  0  0  0  0  0  0  0  0  0  0  0
   91.6521  104.5772  -37.6268 H   0  0  0  0  0  0  0  0  0  0  0  0
   90.6863  104.0388  -39.0160 H   0  0  0  0  0  0  0  0  0  0  0  0
   93.3715  102.0802  -37.1519 H   0  0  0  0  0  0  0  0  0  0  0  0
   94.7115  102.6311  -38.1665 H   0  0  0  0  0  0  0  0  0  0  0  0
   93.8607  103.7832  -37.1459 H   0  0  0  0  0  0  0  0  0  0  0  0
   90.0656   98.0734  -42.0149 H   0  0  0  0  0  0  0  0  0  0  0  0
   90.6410   98.9767  -43.4239 H   0  0  0  0  0  0  0  0  0  0  0  0
   91.9679   89.0244  -48.4556 H   0  0  0  0  0  0  0  0  0  0  0  0
   91.7301   90.4107  -49.5287 H   0  0  0  0  0  0  0  0  0  0  0  0
   93.9550   93.1948  -43.3721 H   0  0  0  0  0  0  0  0  0  0  0  0
   93.0986   94.6058  -42.7887 H   0  0  0  0  0  0  0  0  0  0  0  0
   92.8781   97.8761  -42.0756 H   0  0  0  0  0  0  0  0  0  0  0  0
   89.6589   89.1283  -47.8770 H   0  0  0  0  0  0  0  0  0  0  0  0
   89.4214   90.4551  -48.8139 H   0  0  0  0  0  0  0  0  0  0  0  0
  1  2  3  0  0  0  0
  1 11  1  0  0  0  0
  2 24  1  0  0  0  0
  3 27  1  0  0  0  0
  3 29  3  0  0  0  0
  4  5  2  0  0  0  0
  4 13  1  0  0  0  0
  5 14  1  0  0  0  0
  6  7  2  0  0  0  0
  6 15  1  0  0  0  0
  7 16  1  0  0  0  0
  8 11  2  0  0  0  0
  8 12  1  0  0  0  0
  9 12  1  0  0  0  0
  9 13  2  0  0  0  0
 10 15  2  0  0  0  0
 10 30  1  0  0  0  0
 11 31  1  0  0  0  0
 12 14  2  0  0  0  0
 13 25  1  0  0  0  0
 14 31  1  0  0  0  0
 15 32  1  0  0  0  0
 16 27  1  0  0  0  0
 16 30  2  0  0  0  0
 17 19  1  0  0  0  0
 17 21  1  0  0  0  0
 18 20  1  0  0  0  0
 18 21  1  0  0  0  0
 19 34  1  0  0  0  0
 20 34  1  0  0  0  0
 21 33  1  0  0  0  0
 22 27  1  0  0  0  0
 23 27  1  0  0  0  0
 24 32  1  0  0  0  0
 25 33  1  0  0  0  0
 26 28  1  0  0  0  0
 26 31  1  0  0  0  0
 28 35  1  0  0  0  0
 28 36  1  0  0  0  0
 28 37  1  0  0  0  0
  4 38  1  0  0  0  0
  5 39  1  0  0  0  0
  6 40  1  0  0  0  0
  7 41  1  0  0  0  0
  8 42  1  0  0  0  0
  9 43  1  0  0  0  0
 10 44  1  0  0  0  0
 17 45  1  0  0  0  0
 17 46  1  0  0  0  0
 18 47  1  0  0  0  0
 18 48  1  0  0  0  0
 19 49  1  0  0  0  0
 19 50  1  0  0  0  0
 20 51  1  0  0  0  0
 20 52  1  0  0  0  0
 21 53  1  0  0  0  0
 22 54  1  0  0  0  0
 22 55  1  0  0  0  0
 22 56  1  0  0  0  0
 23 57  1  0  0  0  0
 23 58  1  0  0  0  0
 23 59  1  0  0  0  0
 24 60  1  0  0  0  0
 24 61  1  0  0  0  0
 25 62  1  0  0  0  0
 25 63  1  0  0  0  0
 26 64  1  0  0  0  0
 26 65  1  0  0  0  0
 32 66  1  0  0  0  0
 33 67  1  0  0  0  0
 33 68  1  0  0  0  0
M  CHG  1  33   1
M  END
> <POSIT::Probability>
0.240000

> <best_receptor_index>
0

> <POSIT receptor title>
9S9O-CLEAN(A)altA

> <POSIT::Method>
FRED

> <Result>
POOR

> <Pose>
1

> <POSIT::Relaxed>
FALSE

> <POSIT receptor filename>
../9S9O-CLEAN_A__DU__A1JMR_A-402.oedu

$$$$
Vu2025_08_1
  -OEChem-03232617403D

 68 71  0     0  0  0  0  0  0999 V2000
   91.7710   91.6934  -45.4307 C   0  0  0  0  0  0  0  0  0  0  0  0
   91.8340   90.7938  -46.2247 C   0  0  0  0  0  0  0  0  0  0  0  0
   88.6740   91.8369  -53.3577 C   0  0  0  0  0  0  0  0  0  0  0  0
   91.8824   95.6131  -40.8931 C   0  0  0  0  0  0  0  0  0  0  0  0
   91.2483   96.4697  -41.7904 C   0  0  0  0  0  0  0  0  0  0  0  0
   92.2396   94.3147  -41.2663 C   0  0  0  0  0  0  0  0  0  0  0  0
   91.9613   91.2394  -50.6316 C   0  0  0  0  0  0  0  0  0  0  0  0
   91.0717   91.8348  -51.5188 C   0  0  0  0  0  0  0  0  0  0  0  0
   91.1571   94.0068  -44.6989 C   0  0  0  0  0  0  0  0  0  0  0  0
   90.1608   90.9441  -49.1057 C   0  0  0  0  0  0  0  0  0  0  0  0
   91.6975   92.7588  -44.4916 C   0  0  0  0  0  0  0  0  0  0  0  0
   91.3012   94.7464  -43.4915 C   0  0  0  0  0  0  0  0  0  0  0  0
   90.9511   96.0518  -43.0925 C   0  0  0  0  0  0  0  0  0  0  0  0
   91.9362   93.9097  -42.5713 C   0  0  0  0  0  0  0  0  0  0  0  0
   91.5055   90.7828  -49.3999 C   0  0  0  0  0  0  0  0  0  0  0  0
   89.7467   91.9491  -51.1302 C   0  0  0  0  0  0  0  0  0  0  0  0
   89.4071   99.7670  -44.7909 C   0  0  0  0  0  0  0  0  0  0  0  0
   91.5982   99.9950  -46.0107 C   0  0  0  0  0  0  0  0  0  0  0  0
   89.9253  100.8175  -43.8138 C   0  0  0  0  0  0  0  0  0  0  0  0
   91.9883  101.0323  -44.9627 C   0  0  0  0  0  0  0  0  0  0  0  0
   90.5414   99.0213  -45.4912 C   0  0  0  0  0  0  0  0  0  0  0  0
   87.2964   92.6726  -51.5268 C   0  0  0  0  0  0  0  0  0  0  0  0
   89.1795   94.0497  -52.3899 C   0  0  0  0  0  0  0  0  0  0  0  0
   91.9093   89.6967  -47.1905 C   0  0  0  0  0  0  0  0  0  0  0  0
   90.2676   97.0186  -44.0141 C   0  0  0  0  0  0  0  0  0  0  0  0
   92.8072   91.5625  -42.5954 C   0  0  0  0  0  0  0  0  0  0  0  0
   88.7645   92.5837  -52.0574 C   0  0  0  0  0  0  0  0  0  0  0  0
   94.3119   91.7208  -42.5113 C   0  0  0  0  0  0  0  0  0  0  0  0
   88.6235   91.2406  -54.3519 N   0  0  0  0  0  0  0  0  0  0  0  0
   89.2669   91.5175  -49.9424 N   0  0  0  0  0  0  0  0  0  0  0  0
   92.1652   92.7094  -43.2054 N   0  0  0  0  0  0  0  0  0  0  0  0
   92.3573   90.1937  -48.5077 N   0  0  0  0  0  0  0  0  0  0  0  0
   91.1773   98.0793  -44.5250 N   0  3  0  0  0  0  0  0  0  0  0  0
   90.8344  101.7070  -44.4616 O   0  0  0  0  0  0  0  0  0  0  0  0
   94.9003   90.6273  -41.9821 F   0  0  0  0  0  0  0  0  0  0  0  0
   94.6599   92.7891  -41.7619 F   0  0  0  0  0  0  0  0  0  0  0  0
   94.8324   91.9042  -43.7460 F   0  0  0  0  0  0  0  0  0  0  0  0
   92.1033   95.9587  -39.8863 H   0  0  0  0  0  0  0  0  0  0  0  0
   90.9856   97.4742  -41.4664 H   0  0  0  0  0  0  0  0  0  0  0  0
   92.7337   93.6524  -40.5636 H   0  0  0  0  0  0  0  0  0  0  0  0
   93.0069   91.1377  -50.9092 H   0  0  0  0  0  0  0  0  0  0  0  0
   91.4151   92.1960  -52.4825 H   0  0  0  0  0  0  0  0  0  0  0  0
   90.7062   94.3560  -45.6186 H   0  0  0  0  0  0  0  0  0  0  0  0
   89.7458   90.6073  -48.1605 H   0  0  0  0  0  0  0  0  0  0  0  0
   88.7859   99.0432  -44.2290 H   0  0  0  0  0  0  0  0  0  0  0  0
   88.7393  100.2430  -45.5325 H   0  0  0  0  0  0  0  0  0  0  0  0
   91.2417  100.5025  -46.9258 H   0  0  0  0  0  0  0  0  0  0  0  0
   92.5054   99.4299  -46.2985 H   0  0  0  0  0  0  0  0  0  0  0  0
   89.1023  101.3936  -43.3743 H   0  0  0  0  0  0  0  0  0  0  0  0
   90.4623  100.3298  -42.9939 H   0  0  0  0  0  0  0  0  0  0  0  0
   92.4805  100.5401  -44.1176 H   0  0  0  0  0  0  0  0  0  0  0  0
   92.6914  101.7677  -45.3722 H   0  0  0  0  0  0  0  0  0  0  0  0
   90.1520   98.4067  -46.3064 H   0  0  0  0  0  0  0  0  0  0  0  0
   87.2236   93.2029  -50.5687 H   0  0  0  0  0  0  0  0  0  0  0  0
   86.6549   93.2115  -52.2346 H   0  0  0  0  0  0  0  0  0  0  0  0
   86.8726   91.6730  -51.3755 H   0  0  0  0  0  0  0  0  0  0  0  0
   89.2603   94.6413  -51.4699 H   0  0  0  0  0  0  0  0  0  0  0  0
   90.1523   94.0899  -52.8942 H   0  0  0  0  0  0  0  0  0  0  0  0
   88.4633   94.5548  -53.0501 H   0  0  0  0  0  0  0  0  0  0  0  0
   90.9325   89.2194  -47.3126 H   0  0  0  0  0  0  0  0  0  0  0  0
   92.6167   88.9342  -46.8493 H   0  0  0  0  0  0  0  0  0  0  0  0
   89.4408   97.5294  -43.5089 H   0  0  0  0  0  0  0  0  0  0  0  0
   89.8569   96.5067  -44.8913 H   0  0  0  0  0  0  0  0  0  0  0  0
   92.3964   91.4038  -41.5911 H   0  0  0  0  0  0  0  0  0  0  0  0
   92.5634   90.6584  -43.1663 H   0  0  0  0  0  0  0  0  0  0  0  0
   93.3262   90.0784  -48.7199 H   0  0  0  0  0  0  0  0  0  0  0  0
   91.5516   98.6129  -43.7274 H   0  0  0  0  0  0  0  0  0  0  0  0
   91.9928   97.6359  -44.9705 H   0  0  0  0  0  0  0  0  0  0  0  0
  1  2  3  0  0  0  0
  1 11  1  0  0  0  0
  2 24  1  0  0  0  0
  3 27  1  0  0  0  0
  3 29  3  0  0  0  0
  4  5  1  0  0  0  0
  4  6  2  0  0  0  0
  5 13  2  0  0  0  0
  6 14  1  0  0  0  0
  7  8  2  0  0  0  0
  7 15  1  0  0  0  0
  8 16  1  0  0  0  0
  9 11  2  0  0  0  0
  9 12  1  0  0  0  0
 10 15  2  0  0  0  0
 10 30  1  0  0  0  0
 11 31  1  0  0  0  0
 12 13  1  0  0  0  0
 12 14  2  0  0  0  0
 13 25  1  0  0  0  0
 14 31  1  0  0  0  0
 15 32  1  0  0  0  0
 16 27  1  0  0  0  0
 16 30  2  0  0  0  0
 17 19  1  0  0  0  0
 17 21  1  0  0  0  0
 18 20  1  0  0  0  0
 18 21  1  0  0  0  0
 19 34  1  0  0  0  0
 20 34  1  0  0  0  0
 21 33  1  0  0  0  0
 22 27  1  0  0  0  0
 23 27  1  0  0  0  0
 24 32  1  0  0  0  0
 25 33  1  0  0  0  0
 26 28  1  0  0  0  0
 26 31  1  0  0  0  0
 28 35  1  0  0  0  0
 28 36  1  0  0  0  0
 28 37  1  0  0  0  0
  4 38  1  0  0  0  0
  5 39  1  0  0  0  0
  6 40  1  0  0  0  0
  7 41  1  0  0  0  0
  8 42  1  0  0  0  0
  9 43  1  0  0  0  0
 10 44  1  0  0  0  0
 17 45  1  0  0  0  0
 17 46  1  0  0  0  0
 18 47  1  0  0  0  0
 18 48  1  0  0  0  0
 19 49  1  0  0  0  0
 19 50  1  0  0  0  0
 20 51  1  0  0  0  0
 20 52  1  0  0  0  0
 21 53  1  0  0  0  0
 22 54  1  0  0  0  0
 22 55  1  0  0  0  0
 22 56  1  0  0  0  0
 23 57  1  0  0  0  0
 23 58  1  0  0  0  0
 23 59  1  0  0  0  0
 24 60  1  0  0  0  0
 24 61  1  0  0  0  0
 25 62  1  0  0  0  0
 25 63  1  0  0  0  0
 26 64  1  0  0  0  0
 26 65  1  0  0  0  0
 32 66  1  0  0  0  0
 33 67  1  0  0  0  0
 33 68  1  0  0  0  0
M  CHG  1  33   1
M  END
> <POSIT::Probability>
0.330000

> <best_receptor_index>
0

> <POSIT receptor title>
9S9O-CLEAN(A)altA

> <POSIT::Method>
HYBRID

> <Result>
POOR

> <Pose>
1

> <POSIT::Relaxed>
FALSE

> <POSIT receptor filename>
../9S9O-CLEAN_A__DU__A1JMR_A-402.oedu

$$$$
Vu2025_10_1
  -OEChem-03232617403D

 69 72  0     0  0  0  0  0  0999 V2000
   92.0327   92.0952  -45.7696 C   0  0  0  0  0  0  0  0  0  0  0  0
   92.2111   91.2191  -46.5909 C   0  0  0  0  0  0  0  0  0  0  0  0
   88.2616   93.0167  -52.5778 C   0  0  0  0  0  0  0  0  0  0  0  0
   91.3853   96.1106  -41.2441 C   0  0  0  0  0  0  0  0  0  0  0  0
   91.6493   94.7577  -41.5232 C   0  0  0  0  0  0  0  0  0  0  0  0
   91.1588   97.0159  -42.2981 C   0  0  0  0  0  0  0  0  0  0  0  0
   89.2878   89.2977  -49.5215 C   0  0  0  0  0  0  0  0  0  0  0  0
   88.4601   89.8114  -50.5366 C   0  0  0  0  0  0  0  0  0  0  0  0
   91.5687   94.4577  -45.1573 C   0  0  0  0  0  0  0  0  0  0  0  0
   90.6073   91.3259  -49.6661 C   0  0  0  0  0  0  0  0  0  0  0  0
   91.8459   93.1537  -44.8226 C   0  0  0  0  0  0  0  0  0  0  0  0
   91.4636   95.2155  -43.9101 C   0  0  0  0  0  0  0  0  0  0  0  0
   91.6842   94.3181  -42.8615 C   0  0  0  0  0  0  0  0  0  0  0  0
   90.3837   90.0604  -49.0778 C   0  0  0  0  0  0  0  0  0  0  0  0
   91.2048   96.5711  -43.6447 C   0  0  0  0  0  0  0  0  0  0  0  0
   88.7280   91.0915  -51.0851 C   0  0  0  0  0  0  0  0  0  0  0  0
   92.3030   99.4986  -44.2861 C   0  0  0  0  0  0  0  0  0  0  0  0
   90.3329   99.4693  -45.8784 C   0  0  0  0  0  0  0  0  0  0  0  0
   92.2073  101.0261  -44.2465 C   0  0  0  0  0  0  0  0  0  0  0  0
   90.2933  100.9980  -45.7929 C   0  0  0  0  0  0  0  0  0  0  0  0
   90.9086   98.8959  -44.5749 C   0  0  0  0  0  0  0  0  0  0  0  0
   88.0782   90.7565  -53.5098 C   0  0  0  0  0  0  0  0  0  0  0  0
   86.3559   91.6428  -51.9152 C   0  0  0  0  0  0  0  0  0  0  0  0
   91.6846  102.9914  -45.5929 C   0  0  0  0  0  0  0  0  0  0  0  0
   92.4729   90.1893  -47.5974 C   0  0  0  0  0  0  0  0  0  0  0  0
   92.2489   91.8551  -42.6426 C   0  0  0  0  0  0  0  0  0  0  0  0
   87.8681   91.6359  -52.2555 C   0  0  0  0  0  0  0  0  0  0  0  0
   93.7520   91.7896  -42.3040 C   0  0  0  0  0  0  0  0  0  0  0  0
   88.5912   94.1103  -52.8124 N   0  0  0  0  0  0  0  0  0  0  0  0
   89.7972   91.8115  -50.6358 N   0  0  0  0  0  0  0  0  0  0  0  0
   91.9111   93.0713  -43.4261 N   0  0  0  0  0  0  0  0  0  0  0  0
   91.0092   97.4329  -44.7191 N   0  0  0  0  0  0  0  0  0  0  0  0
   91.2218   89.5405  -48.0812 N   0  0  0  0  0  0  0  0  0  0  0  0
   91.6497  101.5262  -45.5225 N   0  3  0  0  0  0  0  0  0  0  0  0
   93.9836   90.6580  -41.5928 F   0  0  0  0  0  0  0  0  0  0  0  0
   94.1321   92.8603  -41.5566 F   0  0  0  0  0  0  0  0  0  0  0  0
   94.4887   91.7620  -43.4460 F   0  0  0  0  0  0  0  0  0  0  0  0
   91.3563   96.4551  -40.2209 H   0  0  0  0  0  0  0  0  0  0  0  0
   91.8241   94.0604  -40.7172 H   0  0  0  0  0  0  0  0  0  0  0  0
   90.9492   98.0528  -42.0810 H   0  0  0  0  0  0  0  0  0  0  0  0
   89.0845   88.3296  -49.0882 H   0  0  0  0  0  0  0  0  0  0  0  0
   87.6228   89.2324  -50.8971 H   0  0  0  0  0  0  0  0  0  0  0  0
   91.4504   94.8504  -46.1564 H   0  0  0  0  0  0  0  0  0  0  0  0
   91.4455   91.9203  -49.3337 H   0  0  0  0  0  0  0  0  0  0  0  0
   93.0032   99.1966  -45.0789 H   0  0  0  0  0  0  0  0  0  0  0  0
   92.6668   99.1299  -43.3156 H   0  0  0  0  0  0  0  0  0  0  0  0
   89.3135   99.0844  -46.0290 H   0  0  0  0  0  0  0  0  0  0  0  0
   90.9680   99.1661  -46.7238 H   0  0  0  0  0  0  0  0  0  0  0  0
   91.5513  101.3296  -43.4174 H   0  0  0  0  0  0  0  0  0  0  0  0
   93.2105  101.4511  -44.0949 H   0  0  0  0  0  0  0  0  0  0  0  0
   89.9268  101.4067  -46.7461 H   0  0  0  0  0  0  0  0  0  0  0  0
   89.6163  101.2998  -44.9801 H   0  0  0  0  0  0  0  0  0  0  0  0
   90.2329   99.1449  -43.7434 H   0  0  0  0  0  0  0  0  0  0  0  0
   87.7879   89.7198  -53.2842 H   0  0  0  0  0  0  0  0  0  0  0  0
   87.4586   91.1396  -54.3340 H   0  0  0  0  0  0  0  0  0  0  0  0
   89.1378   90.7847  -53.8039 H   0  0  0  0  0  0  0  0  0  0  0  0
   86.0302   90.6214  -51.6690 H   0  0  0  0  0  0  0  0  0  0  0  0
   86.1772   92.3023  -51.0531 H   0  0  0  0  0  0  0  0  0  0  0  0
   85.7868   92.0101  -52.7819 H   0  0  0  0  0  0  0  0  0  0  0  0
   91.2628  103.3229  -46.5532 H   0  0  0  0  0  0  0  0  0  0  0  0
   91.0918  103.4122  -44.7674 H   0  0  0  0  0  0  0  0  0  0  0  0
   92.7254  103.3376  -45.5106 H   0  0  0  0  0  0  0  0  0  0  0  0
   92.9847   90.6533  -48.4534 H   0  0  0  0  0  0  0  0  0  0  0  0
   93.1224   89.4195  -47.1552 H   0  0  0  0  0  0  0  0  0  0  0  0
   91.9776   90.9661  -43.2309 H   0  0  0  0  0  0  0  0  0  0  0  0
   91.6731   91.8642  -41.7053 H   0  0  0  0  0  0  0  0  0  0  0  0
   91.7735   97.2708  -45.3432 H   0  0  0  0  0  0  0  0  0  0  0  0
   90.6433   89.4385  -47.2719 H   0  0  0  0  0  0  0  0  0  0  0  0
   92.2434  101.1849  -46.2512 H   0  0  0  0  0  0  0  0  0  0  0  0
  1  2  3  0  0  0  0
  1 11  1  0  0  0  0
  2 25  1  0  0  0  0
  3 27  1  0  0  0  0
  3 29  3  0  0  0  0
  4  5  2  0  0  0  0
  4  6  1  0  0  0  0
  5 13  1  0  0  0  0
  6 15  2  0  0  0  0
  7  8  2  0  0  0  0
  7 14  1  0  0  0  0
  8 16  1  0  0  0  0
  9 11  2  0  0  0  0
  9 12  1  0  0  0  0
 10 14  2  0  0  0  0
 10 30  1  0  0  0  0
 11 31  1  0  0  0  0
 12 13  2  0  0  0  0
 12 15  1  0  0  0  0
 13 31  1  0  0  0  0
 14 33  1  0  0  0  0
 15 32  1  0  0  0  0
 16 27  1  0  0  0  0
 16 30  2  0  0  0  0
 17 19  1  0  0  0  0
 17 21  1  0  0  0  0
 18 20  1  0  0  0  0
 18 21  1  0  0  0  0
 19 34  1  0  0  0  0
 20 34  1  0  0  0  0
 21 32  1  0  0  0  0
 22 27  1  0  0  0  0
 23 27  1  0  0  0  0
 24 34  1  0  0  0  0
 25 33  1  0  0  0  0
 26 28  1  0  0  0  0
 26 31  1  0  0  0  0
 28 35  1  0  0  0  0
 28 36  1  0  0  0  0
 28 37  1  0  0  0  0
  4 38  1  0  0  0  0
  5 39  1  0  0  0  0
  6 40  1  0  0  0  0
  7 41  1  0  0  0  0
  8 42  1  0  0  0  0
  9 43  1  0  0  0  0
 10 44  1  0  0  0  0
 17 45  1  0  0  0  0
 17 46  1  0  0  0  0
 18 47  1  0  0  0  0
 18 48  1  0  0  0  0
 19 49  1  0  0  0  0
 19 50  1  0  0  0  0
 20 51  1  0  0  0  0
 20 52  1  0  0  0  0
 21 53  1  0  0  0  0
 22 54  1  0  0  0  0
 22 55  1  0  0  0  0
 22 56  1  0  0  0  0
 23 57  1  0  0  0  0
 23 58  1  0  0  0  0
 23 59  1  0  0  0  0
 24 60  1  0  0  0  0
 24 61  1  0  0  0  0
 24 62  1  0  0  0  0
 25 63  1  0  0  0  0
 25 64  1  0  0  0  0
 26 65  1  0  0  0  0
 26 66  1  0  0  0  0
 32 67  1  0  0  0  0
 33 68  1  0  0  0  0
 34 69  1  0  0  0  0
M  CHG  1  34   1
M  END
> <POSIT::Probability>
0.910000

> <best_receptor_index>
0

> <POSIT receptor title>
9S9O-CLEAN(A)altA

> <POSIT::Method>
SHAPEFIT

> <Result>
GREAT

> <Pose>
1

> <POSIT::Relaxed>
FALSE

> <POSIT receptor filename>
../9S9O-CLEAN_A__DU__A1JMR_A-402.oedu

$$$$
Vu2025_14_1
  -OEChem-03232617403D

 70 73  0     0  0  0  0  0  0999 V2000
   91.9480   92.0984  -45.7386 C   0  0  0  0  0  0  0  0  0  0  0  0
   92.1756   91.2208  -46.5442 C   0  0  0  0  0  0  0  0  0  0  0  0
   91.3262   96.1174  -41.2268 C   0  0  0  0  0  0  0  0  0  0  0  0
   91.5540   94.7571  -41.5035 C   0  0  0  0  0  0  0  0  0  0  0  0
   91.1248   97.0276  -42.2824 C   0  0  0  0  0  0  0  0  0  0  0  0
   90.8562   91.4768  -49.6835 C   0  0  0  0  0  0  0  0  0  0  0  0
   90.0058   92.0893  -50.6197 C   0  0  0  0  0  0  0  0  0  0  0  0
   91.4819   94.4618  -45.1376 C   0  0  0  0  0  0  0  0  0  0  0  0
   88.5172   90.1625  -50.5361 C   0  0  0  0  0  0  0  0  0  0  0  0
   91.7340   93.1545  -44.8007 C   0  0  0  0  0  0  0  0  0  0  0  0
   91.3845   95.2187  -43.8906 C   0  0  0  0  0  0  0  0  0  0  0  0
   91.5797   94.3159  -42.8410 C   0  0  0  0  0  0  0  0  0  0  0  0
   91.1604   96.5799  -43.6280 C   0  0  0  0  0  0  0  0  0  0  0  0
   90.5256   90.2127  -49.1417 C   0  0  0  0  0  0  0  0  0  0  0  0
   89.3690   89.5340  -49.5877 C   0  0  0  0  0  0  0  0  0  0  0  0
   88.8186   91.4475  -51.0236 C   0  0  0  0  0  0  0  0  0  0  0  0
   92.3234   99.4820  -44.2808 C   0  0  0  0  0  0  0  0  0  0  0  0
   90.3535   99.4866  -45.8753 C   0  0  0  0  0  0  0  0  0  0  0  0
   92.2579  101.0107  -44.2491 C   0  0  0  0  0  0  0  0  0  0  0  0
   90.3485  101.0168  -45.7992 C   0  0  0  0  0  0  0  0  0  0  0  0
   90.9172   98.9074  -44.5682 C   0  0  0  0  0  0  0  0  0  0  0  0
   91.7923  102.9754  -45.6156 C   0  0  0  0  0  0  0  0  0  0  0  0
   86.8874   91.3084  -53.2456 C   0  0  0  0  0  0  0  0  0  0  0  0
   92.5121   90.1947  -47.5264 C   0  0  0  0  0  0  0  0  0  0  0  0
   92.0609   91.8313  -42.6283 C   0  0  0  0  0  0  0  0  0  0  0  0
   93.5573   91.7050  -42.2822 C   0  0  0  0  0  0  0  0  0  0  0  0
   87.8864   87.5998  -49.3211 C   0  0  0  0  0  0  0  0  0  0  0  0
   91.7740   93.0643  -43.4059 N   0  0  0  0  0  0  0  0  0  0  0  0
   90.9878   97.4426  -44.7057 N   0  0  0  0  0  0  0  0  0  0  0  0
   91.3013   89.6065  -48.1423 N   0  0  0  0  0  0  0  0  0  0  0  0
   91.7173  101.5127  -45.5309 N   0  3  0  0  0  0  0  0  0  0  0  0
   86.4620   92.6185  -50.9938 O   0  0  0  0  0  0  0  0  0  0  0  0
   88.2244   93.5010  -52.6075 O   0  0  0  0  0  0  0  0  0  0  0  0
   89.1257   88.2813  -49.0243 O   0  0  0  0  0  0  0  0  0  0  0  0
   93.7480   90.5348  -41.6232 F   0  0  0  0  0  0  0  0  0  0  0  0
   93.9562   92.7303  -41.4832 F   0  0  0  0  0  0  0  0  0  0  0  0
   94.3074   91.7076  -43.4159 F   0  0  0  0  0  0  0  0  0  0  0  0
   87.8135   87.2646  -50.6379 F   0  0  0  0  0  0  0  0  0  0  0  0
   86.8102   88.3438  -48.9461 F   0  0  0  0  0  0  0  0  0  0  0  0
   87.8786   86.4563  -48.5933 F   0  0  0  0  0  0  0  0  0  0  0  0
   87.5562   92.3736  -51.9431 S   0  0  0  0  0  0  0  0  0  0  0  0
   91.3058   96.4641  -40.2042 H   0  0  0  0  0  0  0  0  0  0  0  0
   91.7081   94.0562  -40.6964 H   0  0  0  0  0  0  0  0  0  0  0  0
   90.9425   98.0700  -42.0667 H   0  0  0  0  0  0  0  0  0  0  0  0
   91.7651   91.9729  -49.3767 H   0  0  0  0  0  0  0  0  0  0  0  0
   90.2630   93.0544  -51.0306 H   0  0  0  0  0  0  0  0  0  0  0  0
   91.3754   94.8569  -46.1371 H   0  0  0  0  0  0  0  0  0  0  0  0
   87.6327   89.6503  -50.8849 H   0  0  0  0  0  0  0  0  0  0  0  0
   93.0180   99.1618  -45.0714 H   0  0  0  0  0  0  0  0  0  0  0  0
   92.6786   99.1107  -43.3082 H   0  0  0  0  0  0  0  0  0  0  0  0
   89.3256   99.1241  -46.0232 H   0  0  0  0  0  0  0  0  0  0  0  0
   90.9810   99.1641  -46.7192 H   0  0  0  0  0  0  0  0  0  0  0  0
   91.6034  101.3317  -43.4254 H   0  0  0  0  0  0  0  0  0  0  0  0
   93.2684  101.4169  -44.0942 H   0  0  0  0  0  0  0  0  0  0  0  0
   89.9924  101.4282  -46.7552 H   0  0  0  0  0  0  0  0  0  0  0  0
   89.6783  101.3394  -44.9888 H   0  0  0  0  0  0  0  0  0  0  0  0
   90.2461   99.1741  -43.7384 H   0  0  0  0  0  0  0  0  0  0  0  0
   91.3820  103.3088  -46.5802 H   0  0  0  0  0  0  0  0  0  0  0  0
   91.2092  103.4204  -44.7958 H   0  0  0  0  0  0  0  0  0  0  0  0
   92.8419  103.2940  -45.5340 H   0  0  0  0  0  0  0  0  0  0  0  0
   86.1204   91.8575  -53.8114 H   0  0  0  0  0  0  0  0  0  0  0  0
   87.6984   91.0070  -53.9250 H   0  0  0  0  0  0  0  0  0  0  0  0
   86.4374   90.4131  -52.7919 H   0  0  0  0  0  0  0  0  0  0  0  0
   93.1299   90.6467  -48.3164 H   0  0  0  0  0  0  0  0  0  0  0  0
   93.0813   89.3967  -47.0272 H   0  0  0  0  0  0  0  0  0  0  0  0
   91.7585   90.9571  -43.2236 H   0  0  0  0  0  0  0  0  0  0  0  0
   91.4808   91.8571  -41.6940 H   0  0  0  0  0  0  0  0  0  0  0  0
   91.7513   97.2622  -45.3257 H   0  0  0  0  0  0  0  0  0  0  0  0
   90.6723   89.4383  -47.3834 H   0  0  0  0  0  0  0  0  0  0  0  0
   92.3036  101.1484  -46.2545 H   0  0  0  0  0  0  0  0  0  0  0  0
  1  2  3  0  0  0  0
  1 10  1  0  0  0  0
  2 24  1  0  0  0  0
  3  4  1  0  0  0  0
  3  5  2  0  0  0  0
  4 12  2  0  0  0  0
  5 13  1  0  0  0  0
  6  7  2  0  0  0  0
  6 14  1  0  0  0  0
  7 16  1  0  0  0  0
  8 10  2  0  0  0  0
  8 11  1  0  0  0  0
  9 15  1  0  0  0  0
  9 16  2  0  0  0  0
 10 28  1  0  0  0  0
 11 12  1  0  0  0  0
 11 13  2  0  0  0  0
 12 28  1  0  0  0  0
 13 29  1  0  0  0  0
 14 15  2  0  0  0  0
 14 30  1  0  0  0  0
 15 34  1  0  0  0  0
 16 41  1  0  0  0  0
 17 19  1  0  0  0  0
 17 21  1  0  0  0  0
 18 20  1  0  0  0  0
 18 21  1  0  0  0  0
 19 31  1  0  0  0  0
 20 31  1  0  0  0  0
 21 29  1  0  0  0  0
 22 31  1  0  0  0  0
 23 41  1  0  0  0  0
 24 30  1  0  0  0  0
 25 26  1  0  0  0  0
 25 28  1  0  0  0  0
 26 35  1  0  0  0  0
 26 36  1  0  0  0  0
 26 37  1  0  0  0  0
 27 34  1  0  0  0  0
 27 38  1  0  0  0  0
 27 39  1  0  0  0  0
 27 40  1  0  0  0  0
 32 41  2  0  0  0  0
 33 41  2  0  0  0  0
  3 42  1  0  0  0  0
  4 43  1  0  0  0  0
  5 44  1  0  0  0  0
  6 45  1  0  0  0  0
  7 46  1  0  0  0  0
  8 47  1  0  0  0  0
  9 48  1  0  0  0  0
 17 49  1  0  0  0  0
 17 50  1  0  0  0  0
 18 51  1  0  0  0  0
 18 52  1  0  0  0  0
 19 53  1  0  0  0  0
 19 54  1  0  0  0  0
 20 55  1  0  0  0  0
 20 56  1  0  0  0  0
 21 57  1  0  0  0  0
 22 58  1  0  0  0  0
 22 59  1  0  0  0  0
 22 60  1  0  0  0  0
 23 61  1  0  0  0  0
 23 62  1  0  0  0  0
 23 63  1  0  0  0  0
 24 64  1  0  0  0  0
 24 65  1  0  0  0  0
 25 66  1  0  0  0  0
 25 67  1  0  0  0  0
 29 68  1  0  0  0  0
 30 69  1  0  0  0  0
 31 70  1  0  0  0  0
M  CHG  1  31   1
M  END
> <POSIT::Probability>
0.940000

> <best_receptor_index>
0

> <POSIT receptor title>
9S9O-CLEAN(A)altA

> <POSIT::Method>
SHAPEFIT

> <Result>
GREAT

> <Pose>
1

> <POSIT::Relaxed>
FALSE

> <POSIT receptor filename>
../9S9O-CLEAN_A__DU__A1JMR_A-402.oedu

$$$$
