Vu2025_13_1
  -OEChem-07272613503D

 69 72  0     0  0  0  0  0  0999 V2000
   92.0231   91.6794  -46.1176 C   0  0  0  0  0  0  0  0  0  0  0  0
   92.1622   90.8442  -46.9701 C   0  0  0  0  0  0  0  0  0  0  0  0
   91.5060   95.1754  -41.2723 C   0  0  0  0  0  0  0  0  0  0  0  0
   91.7757   93.8706  -41.6937 C   0  0  0  0  0  0  0  0  0  0  0  0
   91.2294   96.1846  -42.1920 C   0  0  0  0  0  0  0  0  0  0  0  0
   90.2597   90.9741  -49.6345 C   0  0  0  0  0  0  0  0  0  0  0  0
   89.3724   91.4783  -50.5853 C   0  0  0  0  0  0  0  0  0  0  0  0
   91.5494   93.9958  -45.2969 C   0  0  0  0  0  0  0  0  0  0  0  0
   88.3056   89.3158  -50.7380 C   0  0  0  0  0  0  0  0  0  0  0  0
   91.8574   92.6682  -45.1091 C   0  0  0  0  0  0  0  0  0  0  0  0
   91.4824   94.6096  -44.0146 C   0  0  0  0  0  0  0  0  0  0  0  0
   89.1929   88.8116  -49.7872 C   0  0  0  0  0  0  0  0  0  0  0  0
   91.7567   93.6181  -43.0703 C   0  0  0  0  0  0  0  0  0  0  0  0
   91.2141   95.9183  -43.5658 C   0  0  0  0  0  0  0  0  0  0  0  0
   90.1698   89.6406  -49.2354 C   0  0  0  0  0  0  0  0  0  0  0  0
   88.3955   90.6493  -51.1371 C   0  0  0  0  0  0  0  0  0  0  0  0
   91.9450   99.0364  -43.6724 C   0  0  0  0  0  0  0  0  0  0  0  0
   89.8808   99.0462  -45.1224 C   0  0  0  0  0  0  0  0  0  0  0  0
   91.6739  100.4849  -43.2877 C   0  0  0  0  0  0  0  0  0  0  0  0
   89.6209  100.4951  -44.7314 C   0  0  0  0  0  0  0  0  0  0  0  0
   90.6544   98.3005  -44.0346 C   0  0  0  0  0  0  0  0  0  0  0  0
   89.0756   87.3787  -49.3797 C   0  0  0  0  0  0  0  0  0  0  0  0
   90.7424  102.6393  -44.1297 C   0  0  0  0  0  0  0  0  0  0  0  0
   88.0986   90.9881  -53.8850 C   0  0  0  0  0  0  0  0  0  0  0  0
   92.3338   89.8268  -48.0080 C   0  0  0  0  0  0  0  0  0  0  0  0
   92.2999   91.1754  -43.1512 C   0  0  0  0  0  0  0  0  0  0  0  0
   93.7440   91.0985  -42.6988 C   0  0  0  0  0  0  0  0  0  0  0  0
   91.9807   92.4496  -43.7629 N   0  0  0  0  0  0  0  0  0  0  0  0
   90.9348   96.9467  -44.4483 N   0  0  0  0  0  0  0  0  0  0  0  0
   91.0473   89.1628  -48.3027 N   0  0  0  0  0  0  0  0  0  0  0  0
   90.9309  101.1726  -44.4082 N   0  3  0  0  0  0  0  0  0  0  0  0
   86.0763   90.4701  -52.3237 O   0  0  0  0  0  0  0  0  0  0  0  0
   87.1938   92.7207  -52.1370 O   0  0  0  0  0  0  0  0  0  0  0  0
   94.0386   89.8911  -42.1718 F   0  0  0  0  0  0  0  0  0  0  0  0
   94.0278   92.0409  -41.7740 F   0  0  0  0  0  0  0  0  0  0  0  0
   94.5739   91.2966  -43.7482 F   0  0  0  0  0  0  0  0  0  0  0  0
   87.2874   91.2803  -52.3296 S   0  0  0  0  0  0  0  0  0  0  0  0
   91.5129   95.4052  -40.2098 H   0  0  0  0  0  0  0  0  0  0  0  0
   91.9904   93.0893  -40.9727 H   0  0  0  0  0  0  0  0  0  0  0  0
   91.0243   97.1887  -41.8275 H   0  0  0  0  0  0  0  0  0  0  0  0
   91.0167   91.6293  -49.2108 H   0  0  0  0  0  0  0  0  0  0  0  0
   89.4515   92.5183  -50.8896 H   0  0  0  0  0  0  0  0  0  0  0  0
   91.3890   94.4791  -46.2520 H   0  0  0  0  0  0  0  0  0  0  0  0
   87.5455   88.6681  -51.1686 H   0  0  0  0  0  0  0  0  0  0  0  0
   92.6443   99.0162  -44.5189 H   0  0  0  0  0  0  0  0  0  0  0  0
   92.4425   98.5303  -42.8360 H   0  0  0  0  0  0  0  0  0  0  0  0
   88.9216   98.5480  -45.3080 H   0  0  0  0  0  0  0  0  0  0  0  0
   90.4393   99.0245  -46.0676 H   0  0  0  0  0  0  0  0  0  0  0  0
   91.0572  100.5584  -42.3850 H   0  0  0  0  0  0  0  0  0  0  0  0
   92.6137  101.0256  -43.1345 H   0  0  0  0  0  0  0  0  0  0  0  0
   89.1628  101.0422  -45.5618 H   0  0  0  0  0  0  0  0  0  0  0  0
   88.9802  100.5695  -43.8457 H   0  0  0  0  0  0  0  0  0  0  0  0
   90.0180   98.2534  -43.1262 H   0  0  0  0  0  0  0  0  0  0  0  0
   89.6927   86.7339  -50.0172 H   0  0  0  0  0  0  0  0  0  0  0  0
   88.0413   87.0248  -49.4719 H   0  0  0  0  0  0  0  0  0  0  0  0
   89.3970   87.2530  -48.3395 H   0  0  0  0  0  0  0  0  0  0  0  0
   90.1173  102.7323  -43.2400 H   0  0  0  0  0  0  0  0  0  0  0  0
   90.2568  103.0851  -44.9998 H   0  0  0  0  0  0  0  0  0  0  0  0
   91.7287  103.0763  -43.9634 H   0  0  0  0  0  0  0  0  0  0  0  0
   87.4563   91.3614  -54.6840 H   0  0  0  0  0  0  0  0  0  0  0  0
   88.2588   89.9146  -53.9932 H   0  0  0  0  0  0  0  0  0  0  0  0
   89.0519   91.5184  -53.8812 H   0  0  0  0  0  0  0  0  0  0  0  0
   93.0533   89.0661  -47.6907 H   0  0  0  0  0  0  0  0  0  0  0  0
   92.7084   90.2808  -48.9310 H   0  0  0  0  0  0  0  0  0  0  0  0
   91.6357   91.0030  -42.2958 H   0  0  0  0  0  0  0  0  0  0  0  0
   92.0926   90.3653  -43.8609 H   0  0  0  0  0  0  0  0  0  0  0  0
   90.9254   96.7415  -45.4398 H   0  0  0  0  0  0  0  0  0  0  0  0
   90.8449   88.3354  -47.7816 H   0  0  0  0  0  0  0  0  0  0  0  0
   91.5216  101.1112  -45.2487 H   0  0  0  0  0  0  0  0  0  0  0  0
  1  2  3  0  0  0  0
  1 10  1  0  0  0  0
  2 25  1  0  0  0  0
  3  4  2  0  0  0  0
  3  5  1  0  0  0  0
  4 13  1  0  0  0  0
  5 14  2  0  0  0  0
  6  7  2  0  0  0  0
  6 15  1  0  0  0  0
  7 16  1  0  0  0  0
  8 10  2  0  0  0  0
  8 11  1  0  0  0  0
  9 12  1  0  0  0  0
  9 16  2  0  0  0  0
 10 28  1  0  0  0  0
 11 13  2  0  0  0  0
 11 14  1  0  0  0  0
 12 15  2  0  0  0  0
 12 22  1  0  0  0  0
 13 28  1  0  0  0  0
 14 29  1  0  0  0  0
 15 30  1  0  0  0  0
 16 37  1  0  0  0  0
 17 19  1  0  0  0  0
 17 21  1  0  0  0  0
 18 20  1  0  0  0  0
 18 21  1  0  0  0  0
 19 31  1  0  0  0  0
 20 31  1  0  0  0  0
 21 29  1  0  0  0  0
 23 31  1  0  0  0  0
 24 37  1  0  0  0  0
 25 30  1  0  0  0  0
 26 27  1  0  0  0  0
 26 28  1  0  0  0  0
 27 34  1  0  0  0  0
 27 35  1  0  0  0  0
 27 36  1  0  0  0  0
 32 37  2  0  0  0  0
 33 37  2  0  0  0  0
  3 38  1  0  0  0  0
  4 39  1  0  0  0  0
  5 40  1  0  0  0  0
  6 41  1  0  0  0  0
  7 42  1  0  0  0  0
  8 43  1  0  0  0  0
  9 44  1  0  0  0  0
 17 45  1  0  0  0  0
 17 46  1  0  0  0  0
 18 47  1  0  0  0  0
 18 48  1  0  0  0  0
 19 49  1  0  0  0  0
 19 50  1  0  0  0  0
 20 51  1  0  0  0  0
 20 52  1  0  0  0  0
 21 53  1  0  0  0  0
 22 54  1  0  0  0  0
 22 55  1  0  0  0  0
 22 56  1  0  0  0  0
 23 57  1  0  0  0  0
 23 58  1  0  0  0  0
 23 59  1  0  0  0  0
 24 60  1  0  0  0  0
 24 61  1  0  0  0  0
 24 62  1  0  0  0  0
 25 63  1  0  0  0  0
 25 64  1  0  0  0  0
 26 65  1  0  0  0  0
 26 66  1  0  0  0  0
 29 67  1  0  0  0  0
 30 68  1  0  0  0  0
 31 69  1  0  0  0  0
M  CHG  1  31   1
M  END
> <HYBRID receptor title>
9S9P-CLEAN(A) > A1JMR(A-402)

> <HYBRID receptor filename>
../9S9P-CLEAN_A__DU__A1JMR_A-402.oedu

> <HYBRID Chemgauss4 score>
-13.771493

> <HYBRID receptor title>
9S9P-CLEAN(A) > A1JMR(A-402)

> <HYBRID receptor filename>
../9S9P-CLEAN_A__DU__A1JMR_A-402.oedu

> <Dock Type>
Hybrid

$$$$
Vu2025_12_1
  -OEChem-07272613503D

 69 72  0     0  0  0  0  0  0999 V2000
   92.0231   91.6794  -46.1176 C   0  0  0  0  0  0  0  0  0  0  0  0
   92.1622   90.8442  -46.9701 C   0  0  0  0  0  0  0  0  0  0  0  0
   91.5060   95.1754  -41.2723 C   0  0  0  0  0  0  0  0  0  0  0  0
   91.7757   93.8706  -41.6937 C   0  0  0  0  0  0  0  0  0  0  0  0
   91.2294   96.1846  -42.1920 C   0  0  0  0  0  0  0  0  0  0  0  0
   90.2597   90.9741  -49.6345 C   0  0  0  0  0  0  0  0  0  0  0  0
   89.3724   91.4783  -50.5853 C   0  0  0  0  0  0  0  0  0  0  0  0
   91.5494   93.9958  -45.2969 C   0  0  0  0  0  0  0  0  0  0  0  0
   88.3056   89.3158  -50.7380 C   0  0  0  0  0  0  0  0  0  0  0  0
   91.8574   92.6682  -45.1091 C   0  0  0  0  0  0  0  0  0  0  0  0
   91.4824   94.6096  -44.0146 C   0  0  0  0  0  0  0  0  0  0  0  0
   89.1929   88.8116  -49.7872 C   0  0  0  0  0  0  0  0  0  0  0  0
   91.7567   93.6181  -43.0703 C   0  0  0  0  0  0  0  0  0  0  0  0
   91.2141   95.9183  -43.5658 C   0  0  0  0  0  0  0  0  0  0  0  0
   90.1698   89.6406  -49.2354 C   0  0  0  0  0  0  0  0  0  0  0  0
   88.3955   90.6493  -51.1371 C   0  0  0  0  0  0  0  0  0  0  0  0
   91.9450   99.0364  -43.6724 C   0  0  0  0  0  0  0  0  0  0  0  0
   89.8808   99.0462  -45.1224 C   0  0  0  0  0  0  0  0  0  0  0  0
   91.6739  100.4849  -43.2877 C   0  0  0  0  0  0  0  0  0  0  0  0
   89.6209  100.4951  -44.7314 C   0  0  0  0  0  0  0  0  0  0  0  0
   90.6544   98.3005  -44.0346 C   0  0  0  0  0  0  0  0  0  0  0  0
   89.0756   87.3787  -49.3797 C   0  0  0  0  0  0  0  0  0  0  0  0
   90.7424  102.6393  -44.1297 C   0  0  0  0  0  0  0  0  0  0  0  0
   88.0986   90.9881  -53.8850 C   0  0  0  0  0  0  0  0  0  0  0  0
   92.3338   89.8268  -48.0080 C   0  0  0  0  0  0  0  0  0  0  0  0
   92.2999   91.1754  -43.1512 C   0  0  0  0  0  0  0  0  0  0  0  0
   93.7440   91.0985  -42.6988 C   0  0  0  0  0  0  0  0  0  0  0  0
   91.9807   92.4496  -43.7629 N   0  0  0  0  0  0  0  0  0  0  0  0
   90.9348   96.9467  -44.4483 N   0  0  0  0  0  0  0  0  0  0  0  0
   91.0473   89.1628  -48.3027 N   0  0  0  0  0  0  0  0  0  0  0  0
   90.9309  101.1726  -44.4082 N   0  3  0  0  0  0  0  0  0  0  0  0
   86.0763   90.4701  -52.3237 O   0  0  0  0  0  0  0  0  0  0  0  0
   87.1938   92.7207  -52.1370 O   0  0  0  0  0  0  0  0  0  0  0  0
   94.0386   89.8911  -42.1718 F   0  0  0  0  0  0  0  0  0  0  0  0
   94.0278   92.0409  -41.7740 F   0  0  0  0  0  0  0  0  0  0  0  0
   94.5739   91.2966  -43.7482 F   0  0  0  0  0  0  0  0  0  0  0  0
   87.2874   91.2803  -52.3296 S   0  0  0  0  0  0  0  0  0  0  0  0
   91.5129   95.4052  -40.2098 H   0  0  0  0  0  0  0  0  0  0  0  0
   91.9904   93.0893  -40.9727 H   0  0  0  0  0  0  0  0  0  0  0  0
   91.0243   97.1887  -41.8275 H   0  0  0  0  0  0  0  0  0  0  0  0
   91.0167   91.6293  -49.2108 H   0  0  0  0  0  0  0  0  0  0  0  0
   89.4515   92.5183  -50.8896 H   0  0  0  0  0  0  0  0  0  0  0  0
   91.3890   94.4791  -46.2520 H   0  0  0  0  0  0  0  0  0  0  0  0
   87.5455   88.6681  -51.1686 H   0  0  0  0  0  0  0  0  0  0  0  0
   92.6443   99.0162  -44.5189 H   0  0  0  0  0  0  0  0  0  0  0  0
   92.4425   98.5303  -42.8360 H   0  0  0  0  0  0  0  0  0  0  0  0
   88.9216   98.5480  -45.3080 H   0  0  0  0  0  0  0  0  0  0  0  0
   90.4393   99.0245  -46.0676 H   0  0  0  0  0  0  0  0  0  0  0  0
   91.0572  100.5584  -42.3850 H   0  0  0  0  0  0  0  0  0  0  0  0
   92.6137  101.0256  -43.1345 H   0  0  0  0  0  0  0  0  0  0  0  0
   89.1628  101.0422  -45.5618 H   0  0  0  0  0  0  0  0  0  0  0  0
   88.9802  100.5695  -43.8457 H   0  0  0  0  0  0  0  0  0  0  0  0
   90.0180   98.2534  -43.1262 H   0  0  0  0  0  0  0  0  0  0  0  0
   89.6927   86.7339  -50.0172 H   0  0  0  0  0  0  0  0  0  0  0  0
   88.0413   87.0248  -49.4719 H   0  0  0  0  0  0  0  0  0  0  0  0
   89.3970   87.2530  -48.3395 H   0  0  0  0  0  0  0  0  0  0  0  0
   90.1173  102.7323  -43.2400 H   0  0  0  0  0  0  0  0  0  0  0  0
   90.2568  103.0851  -44.9998 H   0  0  0  0  0  0  0  0  0  0  0  0
   91.7287  103.0763  -43.9634 H   0  0  0  0  0  0  0  0  0  0  0  0
   87.4563   91.3614  -54.6840 H   0  0  0  0  0  0  0  0  0  0  0  0
   88.2588   89.9146  -53.9932 H   0  0  0  0  0  0  0  0  0  0  0  0
   89.0519   91.5184  -53.8812 H   0  0  0  0  0  0  0  0  0  0  0  0
   93.0533   89.0661  -47.6907 H   0  0  0  0  0  0  0  0  0  0  0  0
   92.7084   90.2808  -48.9310 H   0  0  0  0  0  0  0  0  0  0  0  0
   91.6357   91.0030  -42.2958 H   0  0  0  0  0  0  0  0  0  0  0  0
   92.0926   90.3653  -43.8609 H   0  0  0  0  0  0  0  0  0  0  0  0
   90.9254   96.7415  -45.4398 H   0  0  0  0  0  0  0  0  0  0  0  0
   90.8449   88.3354  -47.7816 H   0  0  0  0  0  0  0  0  0  0  0  0
   91.5216  101.1112  -45.2487 H   0  0  0  0  0  0  0  0  0  0  0  0
  1  2  3  0  0  0  0
  1 10  1  0  0  0  0
  2 25  1  0  0  0  0
  3  4  2  0  0  0  0
  3  5  1  0  0  0  0
  4 13  1  0  0  0  0
  5 14  2  0  0  0  0
  6  7  2  0  0  0  0
  6 15  1  0  0  0  0
  7 16  1  0  0  0  0
  8 10  2  0  0  0  0
  8 11  1  0  0  0  0
  9 12  1  0  0  0  0
  9 16  2  0  0  0  0
 10 28  1  0  0  0  0
 11 13  2  0  0  0  0
 11 14  1  0  0  0  0
 12 15  2  0  0  0  0
 12 22  1  0  0  0  0
 13 28  1  0  0  0  0
 14 29  1  0  0  0  0
 15 30  1  0  0  0  0
 16 37  1  0  0  0  0
 17 19  1  0  0  0  0
 17 21  1  0  0  0  0
 18 20  1  0  0  0  0
 18 21  1  0  0  0  0
 19 31  1  0  0  0  0
 20 31  1  0  0  0  0
 21 29  1  0  0  0  0
 23 31  1  0  0  0  0
 24 37  1  0  0  0  0
 25 30  1  0  0  0  0
 26 27  1  0  0  0  0
 26 28  1  0  0  0  0
 27 34  1  0  0  0  0
 27 35  1  0  0  0  0
 27 36  1  0  0  0  0
 32 37  2  0  0  0  0
 33 37  2  0  0  0  0
  3 38  1  0  0  0  0
  4 39  1  0  0  0  0
  5 40  1  0  0  0  0
  6 41  1  0  0  0  0
  7 42  1  0  0  0  0
  8 43  1  0  0  0  0
  9 44  1  0  0  0  0
 17 45  1  0  0  0  0
 17 46  1  0  0  0  0
 18 47  1  0  0  0  0
 18 48  1  0  0  0  0
 19 49  1  0  0  0  0
 19 50  1  0  0  0  0
 20 51  1  0  0  0  0
 20 52  1  0  0  0  0
 21 53  1  0  0  0  0
 22 54  1  0  0  0  0
 22 55  1  0  0  0  0
 22 56  1  0  0  0  0
 23 57  1  0  0  0  0
 23 58  1  0  0  0  0
 23 59  1  0  0  0  0
 24 60  1  0  0  0  0
 24 61  1  0  0  0  0
 24 62  1  0  0  0  0
 25 63  1  0  0  0  0
 25 64  1  0  0  0  0
 26 65  1  0  0  0  0
 26 66  1  0  0  0  0
 29 67  1  0  0  0  0
 30 68  1  0  0  0  0
 31 69  1  0  0  0  0
M  CHG  1  31   1
M  END
> <HYBRID receptor title>
9S9P-CLEAN(A) > A1JMR(A-402)

> <HYBRID receptor filename>
../9S9P-CLEAN_A__DU__A1JMR_A-402.oedu

> <HYBRID Chemgauss4 score>
-13.771493

> <HYBRID receptor title>
9S9P-CLEAN(A) > A1JMR(A-402)

> <HYBRID receptor filename>
../9S9P-CLEAN_A__DU__A1JMR_A-402.oedu

> <Dock Type>
Hybrid

$$$$
Vu2025_11_1
  -OEChem-07272613503D

 66 69  0     0  0  0  0  0  0999 V2000
   92.1424   91.8479  -45.8761 C   0  0  0  0  0  0  0  0  0  0  0  0
   92.2963   90.9824  -46.6951 C   0  0  0  0  0  0  0  0  0  0  0  0
   91.5536   95.5201  -41.1714 C   0  0  0  0  0  0  0  0  0  0  0  0
   91.8397   94.2031  -41.5409 C   0  0  0  0  0  0  0  0  0  0  0  0
   91.2737   96.4906  -42.1308 C   0  0  0  0  0  0  0  0  0  0  0  0
   90.3980   90.9876  -49.3877 C   0  0  0  0  0  0  0  0  0  0  0  0
   89.3745   88.7997  -49.4416 C   0  0  0  0  0  0  0  0  0  0  0  0
   89.5038   91.4292  -50.3630 C   0  0  0  0  0  0  0  0  0  0  0  0
   88.4804   89.2412  -50.4168 C   0  0  0  0  0  0  0  0  0  0  0  0
   91.6390   94.1888  -45.1477 C   0  0  0  0  0  0  0  0  0  0  0  0
   91.9591   92.8726  -44.9072 C   0  0  0  0  0  0  0  0  0  0  0  0
   91.5563   94.8502  -43.8902 C   0  0  0  0  0  0  0  0  0  0  0  0
   91.8336   93.8982  -42.9069 C   0  0  0  0  0  0  0  0  0  0  0  0
   90.3332   89.6727  -48.9269 C   0  0  0  0  0  0  0  0  0  0  0  0
   91.2713   96.1721  -43.4935 C   0  0  0  0  0  0  0  0  0  0  0  0
   88.5452   90.5562  -50.8776 C   0  0  0  0  0  0  0  0  0  0  0  0
   91.9712   99.2914  -43.7137 C   0  0  0  0  0  0  0  0  0  0  0  0
   89.9179   99.2245  -45.1776 C   0  0  0  0  0  0  0  0  0  0  0  0
   91.6825  100.7505  -43.3864 C   0  0  0  0  0  0  0  0  0  0  0  0
   89.6404  100.6844  -44.8440 C   0  0  0  0  0  0  0  0  0  0  0  0
   90.6909   98.5288  -44.0568 C   0  0  0  0  0  0  0  0  0  0  0  0
   90.7355  102.8615  -44.3165 C   0  0  0  0  0  0  0  0  0  0  0  0
   86.0402   91.7349  -51.1762 C   0  0  0  0  0  0  0  0  0  0  0  0
   92.4860   89.9280  -47.6923 C   0  0  0  0  0  0  0  0  0  0  0  0
   92.4021   91.4600  -42.8908 C   0  0  0  0  0  0  0  0  0  0  0  0
   93.8435   91.4154  -42.4256 C   0  0  0  0  0  0  0  0  0  0  0  0
   92.0746   92.7066  -43.5528 N   0  0  0  0  0  0  0  0  0  0  0  0
   90.9882   97.1633  -44.4165 N   0  0  0  0  0  0  0  0  0  0  0  0
   91.2085   89.2399  -47.9705 N   0  0  0  0  0  0  0  0  0  0  0  0
   90.9410  101.3873  -44.5376 N   0  3  0  0  0  0  0  0  0  0  0  0
   88.0157   92.2426  -52.7996 O   0  0  0  0  0  0  0  0  0  0  0  0
   86.9752   89.9484  -52.8526 O   0  0  0  0  0  0  0  0  0  0  0  0
   94.1464   90.2322  -41.8509 F   0  0  0  0  0  0  0  0  0  0  0  0
   94.1108   92.3953  -41.5354 F   0  0  0  0  0  0  0  0  0  0  0  0
   94.6792   91.5821  -43.4759 F   0  0  0  0  0  0  0  0  0  0  0  0
   87.4263   91.1095  -52.0983 S   0  0  0  0  0  0  0  0  0  0  0  0
   91.5502   95.7902  -40.1184 H   0  0  0  0  0  0  0  0  0  0  0  0
   92.0570   93.4521  -40.7890 H   0  0  0  0  0  0  0  0  0  0  0  0
   91.0556   97.5057  -41.8063 H   0  0  0  0  0  0  0  0  0  0  0  0
   91.1403   91.6763  -48.9922 H   0  0  0  0  0  0  0  0  0  0  0  0
   89.3166   87.7726  -49.0900 H   0  0  0  0  0  0  0  0  0  0  0  0
   89.5631   92.4559  -50.7138 H   0  0  0  0  0  0  0  0  0  0  0  0
   87.7382   88.5522  -50.8106 H   0  0  0  0  0  0  0  0  0  0  0  0
   91.4809   94.6337  -46.1217 H   0  0  0  0  0  0  0  0  0  0  0  0
   92.6770   99.2463  -44.5539 H   0  0  0  0  0  0  0  0  0  0  0  0
   92.4676   98.8227  -42.8552 H   0  0  0  0  0  0  0  0  0  0  0  0
   88.9653   98.7096  -45.3509 H   0  0  0  0  0  0  0  0  0  0  0  0
   90.4836   99.1726  -46.1173 H   0  0  0  0  0  0  0  0  0  0  0  0
   91.0585  100.8519  -42.4916 H   0  0  0  0  0  0  0  0  0  0  0  0
   92.6157  101.3064  -43.2474 H   0  0  0  0  0  0  0  0  0  0  0  0
   89.1830  101.1946  -45.6978 H   0  0  0  0  0  0  0  0  0  0  0  0
   88.9924  100.7857  -43.9663 H   0  0  0  0  0  0  0  0  0  0  0  0
   90.0483   98.5096  -43.1517 H   0  0  0  0  0  0  0  0  0  0  0  0
   90.1029  102.9817  -43.4355 H   0  0  0  0  0  0  0  0  0  0  0  0
   90.2519  103.2688  -45.2064 H   0  0  0  0  0  0  0  0  0  0  0  0
   91.7161  103.3148  -44.1601 H   0  0  0  0  0  0  0  0  0  0  0  0
   85.2938   92.1014  -51.8824 H   0  0  0  0  0  0  0  0  0  0  0  0
   86.3905   92.5451  -50.5354 H   0  0  0  0  0  0  0  0  0  0  0  0
   85.6313   90.9216  -50.5750 H   0  0  0  0  0  0  0  0  0  0  0  0
   93.2107   89.1875  -47.3412 H   0  0  0  0  0  0  0  0  0  0  0  0
   92.8628   90.3505  -48.6292 H   0  0  0  0  0  0  0  0  0  0  0  0
   91.7334   91.3133  -42.0342 H   0  0  0  0  0  0  0  0  0  0  0  0
   92.2084   90.6214  -43.5705 H   0  0  0  0  0  0  0  0  0  0  0  0
   90.9882   96.9204  -45.3996 H   0  0  0  0  0  0  0  0  0  0  0  0
   91.0107   88.4308  -47.4197 H   0  0  0  0  0  0  0  0  0  0  0  0
   91.5386  101.3002  -45.3709 H   0  0  0  0  0  0  0  0  0  0  0  0
  1  2  3  0  0  0  0
  1 11  1  0  0  0  0
  2 24  1  0  0  0  0
  3  4  1  0  0  0  0
  3  5  2  0  0  0  0
  4 13  2  0  0  0  0
  5 15  1  0  0  0  0
  6  8  2  0  0  0  0
  6 14  1  0  0  0  0
  7  9  1  0  0  0  0
  7 14  2  0  0  0  0
  8 16  1  0  0  0  0
  9 16  2  0  0  0  0
 10 11  2  0  0  0  0
 10 12  1  0  0  0  0
 11 27  1  0  0  0  0
 12 13  1  0  0  0  0
 12 15  2  0  0  0  0
 13 27  1  0  0  0  0
 14 29  1  0  0  0  0
 15 28  1  0  0  0  0
 16 36  1  0  0  0  0
 17 19  1  0  0  0  0
 17 21  1  0  0  0  0
 18 20  1  0  0  0  0
 18 21  1  0  0  0  0
 19 30  1  0  0  0  0
 20 30  1  0  0  0  0
 21 28  1  0  0  0  0
 22 30  1  0  0  0  0
 23 36  1  0  0  0  0
 24 29  1  0  0  0  0
 25 26  1  0  0  0  0
 25 27  1  0  0  0  0
 26 33  1  0  0  0  0
 26 34  1  0  0  0  0
 26 35  1  0  0  0  0
 31 36  2  0  0  0  0
 32 36  2  0  0  0  0
  3 37  1  0  0  0  0
  4 38  1  0  0  0  0
  5 39  1  0  0  0  0
  6 40  1  0  0  0  0
  7 41  1  0  0  0  0
  8 42  1  0  0  0  0
  9 43  1  0  0  0  0
 10 44  1  0  0  0  0
 17 45  1  0  0  0  0
 17 46  1  0  0  0  0
 18 47  1  0  0  0  0
 18 48  1  0  0  0  0
 19 49  1  0  0  0  0
 19 50  1  0  0  0  0
 20 51  1  0  0  0  0
 20 52  1  0  0  0  0
 21 53  1  0  0  0  0
 22 54  1  0  0  0  0
 22 55  1  0  0  0  0
 22 56  1  0  0  0  0
 23 57  1  0  0  0  0
 23 58  1  0  0  0  0
 23 59  1  0  0  0  0
 24 60  1  0  0  0  0
 24 61  1  0  0  0  0
 25 62  1  0  0  0  0
 25 63  1  0  0  0  0
 28 64  1  0  0  0  0
 29 65  1  0  0  0  0
 30 66  1  0  0  0  0
M  CHG  1  30   1
M  END
> <HYBRID receptor title>
9S9P-CLEAN(A) > A1JMR(A-402)

> <HYBRID receptor filename>
../9S9P-CLEAN_A__DU__A1JMR_A-402.oedu

> <HYBRID Chemgauss4 score>
-13.743408

> <HYBRID receptor title>
9S9P-CLEAN(A) > A1JMR(A-402)

> <HYBRID receptor filename>
../9S9P-CLEAN_A__DU__A1JMR_A-402.oedu

> <Dock Type>
Hybrid

$$$$
Vu2025_10_1
  -OEChem-07272613503D

 69 72  0     0  0  0  0  0  0999 V2000
   92.2809   91.8865  -45.9346 C   0  0  0  0  0  0  0  0  0  0  0  0
   92.4595   91.0078  -46.7343 C   0  0  0  0  0  0  0  0  0  0  0  0
   86.8623   91.7944  -51.4875 C   0  0  0  0  0  0  0  0  0  0  0  0
   91.5826   95.6424  -41.3117 C   0  0  0  0  0  0  0  0  0  0  0  0
   91.9025   94.3254  -41.6518 C   0  0  0  0  0  0  0  0  0  0  0  0
   91.2827   96.5851  -42.2927 C   0  0  0  0  0  0  0  0  0  0  0  0
   90.5535   90.8991  -49.4470 C   0  0  0  0  0  0  0  0  0  0  0  0
   89.6441   91.2679  -50.4319 C   0  0  0  0  0  0  0  0  0  0  0  0
   91.7170   94.2292  -45.2582 C   0  0  0  0  0  0  0  0  0  0  0  0
   89.6009   88.7196  -49.4567 C   0  0  0  0  0  0  0  0  0  0  0  0
   92.0685   92.9268  -44.9885 C   0  0  0  0  0  0  0  0  0  0  0  0
   91.6129   94.9150  -44.0155 C   0  0  0  0  0  0  0  0  0  0  0  0
   91.9095   93.9913  -43.0111 C   0  0  0  0  0  0  0  0  0  0  0  0
   90.5384   89.6027  -48.9445 C   0  0  0  0  0  0  0  0  0  0  0  0
   91.2937   96.2376  -43.6482 C   0  0  0  0  0  0  0  0  0  0  0  0
   88.7468   90.3108  -50.8777 C   0  0  0  0  0  0  0  0  0  0  0  0
   91.9174   99.3679  -43.9327 C   0  0  0  0  0  0  0  0  0  0  0  0
   89.8724   99.2189  -45.4021 C   0  0  0  0  0  0  0  0  0  0  0  0
   91.5914  100.8261  -43.6377 C   0  0  0  0  0  0  0  0  0  0  0  0
   89.5576  100.6783  -45.1007 C   0  0  0  0  0  0  0  0  0  0  0  0
   90.6577   98.5667  -44.2638 C   0  0  0  0  0  0  0  0  0  0  0  0
   88.3632   91.1416  -53.2958 C   0  0  0  0  0  0  0  0  0  0  0  0
   86.8416   89.4572  -52.2785 C   0  0  0  0  0  0  0  0  0  0  0  0
   90.5965  102.8927  -44.6161 C   0  0  0  0  0  0  0  0  0  0  0  0
   92.6792   89.9375  -47.7080 C   0  0  0  0  0  0  0  0  0  0  0  0
   92.5380   91.5689  -42.9407 C   0  0  0  0  0  0  0  0  0  0  0  0
   87.7561   90.6723  -51.9334 C   0  0  0  0  0  0  0  0  0  0  0  0
   93.9781   91.5699  -42.4696 C   0  0  0  0  0  0  0  0  0  0  0  0
   86.1867   92.6625  -51.1180 N   0  0  0  0  0  0  0  0  0  0  0  0
   88.7019   89.0419  -50.4136 N   0  0  0  0  0  0  0  0  0  0  0  0
   92.1825   92.7926  -43.6305 N   0  0  0  0  0  0  0  0  0  0  0  0
   90.9900   97.2016  -44.5932 N   0  0  0  0  0  0  0  0  0  0  0  0
   91.4203   89.2121  -47.9760 N   0  0  0  0  0  0  0  0  0  0  0  0
   90.8391  101.4196  -44.8048 N   0  3  0  0  0  0  0  0  0  0  0  0
   94.3077   90.4070  -41.8686 F   0  0  0  0  0  0  0  0  0  0  0  0
   94.2176   92.5748  -41.5996 F   0  0  0  0  0  0  0  0  0  0  0  0
   94.8137   91.7348  -43.5202 F   0  0  0  0  0  0  0  0  0  0  0  0
   91.5682   95.9347  -40.2647 H   0  0  0  0  0  0  0  0  0  0  0  0
   92.1352   93.5961  -40.8833 H   0  0  0  0  0  0  0  0  0  0  0  0
   91.0383   97.6012  -41.9907 H   0  0  0  0  0  0  0  0  0  0  0  0
   91.2681   91.6295  -49.0774 H   0  0  0  0  0  0  0  0  0  0  0  0
   89.6451   92.2766  -50.8314 H   0  0  0  0  0  0  0  0  0  0  0  0
   91.5519   94.6492  -46.2421 H   0  0  0  0  0  0  0  0  0  0  0  0
   89.5406   87.6942  -49.1047 H   0  0  0  0  0  0  0  0  0  0  0  0
   92.6274   99.3224  -44.7691 H   0  0  0  0  0  0  0  0  0  0  0  0
   92.4216   98.9300  -43.0625 H   0  0  0  0  0  0  0  0  0  0  0  0
   88.9334   98.6771  -45.5677 H   0  0  0  0  0  0  0  0  0  0  0  0
   90.4430   99.1611  -46.3384 H   0  0  0  0  0  0  0  0  0  0  0  0
   90.9614  100.9310  -42.7474 H   0  0  0  0  0  0  0  0  0  0  0  0
   92.5100  101.4078  -43.5072 H   0  0  0  0  0  0  0  0  0  0  0  0
   89.0911  101.1588  -45.9669 H   0  0  0  0  0  0  0  0  0  0  0  0
   88.9037  100.7822  -44.2277 H   0  0  0  0  0  0  0  0  0  0  0  0
   90.0120   98.5509  -43.3609 H   0  0  0  0  0  0  0  0  0  0  0  0
   89.0442   90.4008  -53.7336 H   0  0  0  0  0  0  0  0  0  0  0  0
   87.5744   91.3208  -54.0363 H   0  0  0  0  0  0  0  0  0  0  0  0
   88.9325   92.0703  -53.1725 H   0  0  0  0  0  0  0  0  0  0  0  0
   87.4478   88.6060  -52.6115 H   0  0  0  0  0  0  0  0  0  0  0  0
   86.2610   89.1282  -51.4084 H   0  0  0  0  0  0  0  0  0  0  0  0
   86.1174   89.6820  -53.0714 H   0  0  0  0  0  0  0  0  0  0  0  0
   89.9574  103.0159  -43.7401 H   0  0  0  0  0  0  0  0  0  0  0  0
   90.1065  103.2688  -45.5163 H   0  0  0  0  0  0  0  0  0  0  0  0
   91.5649  103.3733  -44.4660 H   0  0  0  0  0  0  0  0  0  0  0  0
   93.4206   89.2228  -47.3385 H   0  0  0  0  0  0  0  0  0  0  0  0
   93.0494   90.3491  -48.6524 H   0  0  0  0  0  0  0  0  0  0  0  0
   91.8696   91.4240  -42.0836 H   0  0  0  0  0  0  0  0  0  0  0  0
   92.3678   90.7114  -43.6030 H   0  0  0  0  0  0  0  0  0  0  0  0
   91.0001   96.9379  -45.5709 H   0  0  0  0  0  0  0  0  0  0  0  0
   91.2402   88.4104  -47.4087 H   0  0  0  0  0  0  0  0  0  0  0  0
   91.4420  101.3296  -45.6340 H   0  0  0  0  0  0  0  0  0  0  0  0
  1  2  3  0  0  0  0
  1 11  1  0  0  0  0
  2 25  1  0  0  0  0
  3 27  1  0  0  0  0
  3 29  3  0  0  0  0
  4  5  2  0  0  0  0
  4  6  1  0  0  0  0
  5 13  1  0  0  0  0
  6 15  2  0  0  0  0
  7  8  2  0  0  0  0
  7 14  1  0  0  0  0
  8 16  1  0  0  0  0
  9 11  2  0  0  0  0
  9 12  1  0  0  0  0
 10 14  2  0  0  0  0
 10 30  1  0  0  0  0
 11 31  1  0  0  0  0
 12 13  2  0  0  0  0
 12 15  1  0  0  0  0
 13 31  1  0  0  0  0
 14 33  1  0  0  0  0
 15 32  1  0  0  0  0
 16 27  1  0  0  0  0
 16 30  2  0  0  0  0
 17 19  1  0  0  0  0
 17 21  1  0  0  0  0
 18 20  1  0  0  0  0
 18 21  1  0  0  0  0
 19 34  1  0  0  0  0
 20 34  1  0  0  0  0
 21 32  1  0  0  0  0
 22 27  1  0  0  0  0
 23 27  1  0  0  0  0
 24 34  1  0  0  0  0
 25 33  1  0  0  0  0
 26 28  1  0  0  0  0
 26 31  1  0  0  0  0
 28 35  1  0  0  0  0
 28 36  1  0  0  0  0
 28 37  1  0  0  0  0
  4 38  1  0  0  0  0
  5 39  1  0  0  0  0
  6 40  1  0  0  0  0
  7 41  1  0  0  0  0
  8 42  1  0  0  0  0
  9 43  1  0  0  0  0
 10 44  1  0  0  0  0
 17 45  1  0  0  0  0
 17 46  1  0  0  0  0
 18 47  1  0  0  0  0
 18 48  1  0  0  0  0
 19 49  1  0  0  0  0
 19 50  1  0  0  0  0
 20 51  1  0  0  0  0
 20 52  1  0  0  0  0
 21 53  1  0  0  0  0
 22 54  1  0  0  0  0
 22 55  1  0  0  0  0
 22 56  1  0  0  0  0
 23 57  1  0  0  0  0
 23 58  1  0  0  0  0
 23 59  1  0  0  0  0
 24 60  1  0  0  0  0
 24 61  1  0  0  0  0
 24 62  1  0  0  0  0
 25 63  1  0  0  0  0
 25 64  1  0  0  0  0
 26 65  1  0  0  0  0
 26 66  1  0  0  0  0
 32 67  1  0  0  0  0
 33 68  1  0  0  0  0
 34 69  1  0  0  0  0
M  CHG  1  34   1
M  END
> <HYBRID receptor title>
9S9P-CLEAN(A) > A1JMR(A-402)

> <HYBRID receptor filename>
../9S9P-CLEAN_A__DU__A1JMR_A-402.oedu

> <HYBRID Chemgauss4 score>
-13.614318

> <HYBRID receptor title>
9S9P-CLEAN(A) > A1JMR(A-402)

> <HYBRID receptor filename>
../9S9P-CLEAN_A__DU__A1JMR_A-402.oedu

> <Dock Type>
Hybrid

$$$$
Vu2025_22_1
  -OEChem-07272613503D

 70 73  0     1  0  0  0  0  0999 V2000
   91.9462   91.6885  -45.9558 C   0  0  0  0  0  0  0  0  0  0  0  0
   92.0646   90.8536  -46.8117 C   0  0  0  0  0  0  0  0  0  0  0  0
   91.6271   95.2044  -41.1080 C   0  0  0  0  0  0  0  0  0  0  0  0
   91.9430   93.9144  -41.5424 C   0  0  0  0  0  0  0  0  0  0  0  0
   91.2068   96.1824  -42.0068 C   0  0  0  0  0  0  0  0  0  0  0  0
   90.8024   91.1118  -49.9725 C   0  0  0  0  0  0  0  0  0  0  0  0
   90.1336   91.7564  -51.0131 C   0  0  0  0  0  0  0  0  0  0  0  0
   91.3966   93.9799  -45.1127 C   0  0  0  0  0  0  0  0  0  0  0  0
   88.3030   90.1932  -50.8064 C   0  0  0  0  0  0  0  0  0  0  0  0
   91.8051   92.6772  -44.9435 C   0  0  0  0  0  0  0  0  0  0  0  0
   91.4018   94.6041  -43.8337 C   0  0  0  0  0  0  0  0  0  0  0  0
   91.8208   93.6440  -42.9103 C   0  0  0  0  0  0  0  0  0  0  0  0
   91.0893   95.8985  -43.3720 C   0  0  0  0  0  0  0  0  0  0  0  0
   90.2212   90.0078  -49.3488 C   0  0  0  0  0  0  0  0  0  0  0  0
   88.9718   89.5486  -49.7658 C   0  0  0  0  0  0  0  0  0  0  0  0
   88.8841   91.2972  -51.4301 C   0  0  0  0  0  0  0  0  0  0  0  0
   89.4391   98.9170  -44.8412 C   0  0  0  0  0  0  0  0  0  0  0  0
   90.1763   99.2412  -46.1367 C   0  0  0  0  0  0  0  0  0  0  0  0
   92.3471   99.3701  -44.8759 C   0  0  0  0  0  0  0  0  0  0  0  0
   90.3363   98.2411  -43.8025 C   0  0  2  0  0  0  0  0  0  0  0  0
   91.6135   99.0513  -43.5826 C   0  0  1  0  0  0  0  0  0  0  0  0
   91.1596  101.4889  -45.5485 C   0  0  0  0  0  0  0  0  0  0  0  0
   87.1101   88.0719  -49.6616 C   0  0  0  0  0  0  0  0  0  0  0  0
   88.5993   91.2646  -54.1998 C   0  0  0  0  0  0  0  0  0  0  0  0
   92.2109   89.8361  -47.8535 C   0  0  0  0  0  0  0  0  0  0  0  0
   92.5120   91.2403  -43.0217 C   0  0  0  0  0  0  0  0  0  0  0  0
   93.9919   91.2615  -42.6970 C   0  0  0  0  0  0  0  0  0  0  0  0
   92.0590   92.4837  -43.6118 N   0  0  0  0  0  0  0  0  0  0  0  0
   90.6685   96.8954  -44.2333 N   0  0  0  0  0  0  0  0  0  0  0  0
   90.8868   89.3857  -48.3298 N   0  0  0  0  0  0  0  0  0  0  0  0
   91.4278  100.0416  -45.8641 N   0  3  2  0  0  0  0  0  0  0  0  0
   86.6189   91.8462  -52.6075 O   0  0  0  0  0  0  0  0  0  0  0  0
   88.5307   93.4768  -52.7936 O   0  0  0  0  0  0  0  0  0  0  0  0
   88.3881   88.4705  -49.1699 O   0  0  0  0  0  0  0  0  0  0  0  0
   92.4517   98.3489  -42.7700 F   0  0  0  0  0  0  0  0  0  0  0  0
   94.4088   90.0821  -42.1896 F   0  0  0  0  0  0  0  0  0  0  0  0
   94.2934   92.2316  -41.8071 F   0  0  0  0  0  0  0  0  0  0  0  0
   94.7128   91.4991  -43.8164 F   0  0  0  0  0  0  0  0  0  0  0  0
   88.0475   92.1045  -52.7326 S   0  0  0  0  0  0  0  0  0  0  0  0
   91.7114   95.4474  -40.0517 H   0  0  0  0  0  0  0  0  0  0  0  0
   92.2698   93.1575  -40.8376 H   0  0  0  0  0  0  0  0  0  0  0  0
   90.9695   97.1758  -41.6325 H   0  0  0  0  0  0  0  0  0  0  0  0
   91.7751   91.4791  -49.6555 H   0  0  0  0  0  0  0  0  0  0  0  0
   90.5948   92.6161  -51.4916 H   0  0  0  0  0  0  0  0  0  0  0  0
   91.1228   94.4400  -46.0534 H   0  0  0  0  0  0  0  0  0  0  0  0
   87.3299   89.8318  -51.1290 H   0  0  0  0  0  0  0  0  0  0  0  0
   89.0239   99.8508  -44.4266 H   0  0  0  0  0  0  0  0  0  0  0  0
   88.5720   98.2738  -45.0732 H   0  0  0  0  0  0  0  0  0  0  0  0
   90.4829   98.3142  -46.6464 H   0  0  0  0  0  0  0  0  0  0  0  0
   89.5487   99.8303  -46.8257 H   0  0  0  0  0  0  0  0  0  0  0  0
   93.2043  100.0420  -44.7067 H   0  0  0  0  0  0  0  0  0  0  0  0
   92.7025   98.4431  -45.3522 H   0  0  0  0  0  0  0  0  0  0  0  0
   89.7911   98.1737  -42.8515 H   0  0  0  0  0  0  0  0  0  0  0  0
   91.3791   99.9930  -43.0547 H   0  0  0  0  0  0  0  0  0  0  0  0
   90.6104  101.5286  -44.6064 H   0  0  0  0  0  0  0  0  0  0  0  0
   90.5682  101.9053  -46.3662 H   0  0  0  0  0  0  0  0  0  0  0  0
   92.1227  101.9952  -45.4629 H   0  0  0  0  0  0  0  0  0  0  0  0
   86.7578   87.2020  -49.1012 H   0  0  0  0  0  0  0  0  0  0  0  0
   86.4056   88.8967  -49.5306 H   0  0  0  0  0  0  0  0  0  0  0  0
   87.1875   87.8274  -50.7235 H   0  0  0  0  0  0  0  0  0  0  0  0
   88.1117   91.7215  -55.0623 H   0  0  0  0  0  0  0  0  0  0  0  0
   88.3242   90.2124  -54.1181 H   0  0  0  0  0  0  0  0  0  0  0  0
   89.6825   91.3721  -54.2714 H   0  0  0  0  0  0  0  0  0  0  0  0
   92.7578   88.9679  -47.4740 H   0  0  0  0  0  0  0  0  0  0  0  0
   92.7671   90.2384  -48.7062 H   0  0  0  0  0  0  0  0  0  0  0  0
   91.9373   91.0364  -42.1103 H   0  0  0  0  0  0  0  0  0  0  0  0
   92.2967   90.4098  -43.7049 H   0  0  0  0  0  0  0  0  0  0  0  0
   90.5857   96.6794  -45.2186 H   0  0  0  0  0  0  0  0  0  0  0  0
   90.4940   88.5932  -47.8663 H   0  0  0  0  0  0  0  0  0  0  0  0
   91.9592  100.0538  -46.7809 H   0  0  0  0  0  0  0  0  0  0  0  0
  1  2  3  0  0  0  0
  1 10  1  0  0  0  0
  2 25  1  0  0  0  0
  3  4  1  0  0  0  0
  3  5  2  0  0  0  0
  4 12  2  0  0  0  0
  5 13  1  0  0  0  0
  6  7  2  0  0  0  0
  6 14  1  0  0  0  0
  7 16  1  0  0  0  0
  8 10  2  0  0  0  0
  8 11  1  0  0  0  0
  9 15  1  0  0  0  0
  9 16  2  0  0  0  0
 10 28  1  0  0  0  0
 11 12  1  0  0  0  0
 11 13  2  0  0  0  0
 12 28  1  0  0  0  0
 13 29  1  0  0  0  0
 14 15  2  0  0  0  0
 14 30  1  0  0  0  0
 15 34  1  0  0  0  0
 16 39  1  0  0  0  0
 17 18  1  0  0  0  0
 17 20  1  0  0  0  0
 18 31  1  0  0  0  0
 19 21  1  0  0  0  0
 19 31  1  0  0  0  0
 20 21  1  0  0  0  0
 20 29  1  0  0  0  0
 21 35  1  0  0  0  0
 22 31  1  0  0  0  0
 23 34  1  0  0  0  0
 24 39  1  0  0  0  0
 25 30  1  0  0  0  0
 26 27  1  0  0  0  0
 26 28  1  0  0  0  0
 27 36  1  0  0  0  0
 27 37  1  0  0  0  0
 27 38  1  0  0  0  0
 32 39  2  0  0  0  0
 33 39  2  0  0  0  0
  3 40  1  0  0  0  0
  4 41  1  0  0  0  0
  5 42  1  0  0  0  0
  6 43  1  0  0  0  0
  7 44  1  0  0  0  0
  8 45  1  0  0  0  0
  9 46  1  0  0  0  0
 17 47  1  0  0  0  0
 17 48  1  0  0  0  0
 18 49  1  0  0  0  0
 18 50  1  0  0  0  0
 19 51  1  0  0  0  0
 19 52  1  0  0  0  0
 20 53  1  0  0  0  0
 21 54  1  0  0  0  0
 22 55  1  0  0  0  0
 22 56  1  0  0  0  0
 22 57  1  0  0  0  0
 23 58  1  0  0  0  0
 23 59  1  0  0  0  0
 23 60  1  0  0  0  0
 24 61  1  0  0  0  0
 24 62  1  0  0  0  0
 24 63  1  0  0  0  0
 25 64  1  0  0  0  0
 25 65  1  0  0  0  0
 26 66  1  0  0  0  0
 26 67  1  0  0  0  0
 29 68  1  0  0  0  0
 30 69  1  0  0  0  0
 31 70  1  0  0  0  0
M  CHG  1  31   1
M  END
> <HYBRID receptor title>
9S9P-CLEAN(A) > A1JMR(A-402)

> <HYBRID receptor filename>
../9S9P-CLEAN_A__DU__A1JMR_A-402.oedu

> <HYBRID Chemgauss4 score>
-13.581375

> <HYBRID receptor title>
9S9P-CLEAN(A) > A1JMR(A-402)

> <HYBRID receptor filename>
../9S9P-CLEAN_A__DU__A1JMR_A-402.oedu

> <Dock Type>
Hybrid

$$$$
Vu2025_14_1
  -OEChem-07272613503D

 70 73  0     0  0  0  0  0  0999 V2000
   91.9457   91.8053  -46.0675 C   0  0  0  0  0  0  0  0  0  0  0  0
   92.0819   90.9634  -46.9139 C   0  0  0  0  0  0  0  0  0  0  0  0
   91.4168   95.3333  -41.2469 C   0  0  0  0  0  0  0  0  0  0  0  0
   91.6646   94.0210  -41.6579 C   0  0  0  0  0  0  0  0  0  0  0  0
   91.1805   96.3445  -42.1757 C   0  0  0  0  0  0  0  0  0  0  0  0
   90.2303   91.1240  -49.6171 C   0  0  0  0  0  0  0  0  0  0  0  0
   89.3701   91.6406  -50.5861 C   0  0  0  0  0  0  0  0  0  0  0  0
   91.5093   94.1354  -45.2652 C   0  0  0  0  0  0  0  0  0  0  0  0
   88.2614   89.4997  -50.7446 C   0  0  0  0  0  0  0  0  0  0  0  0
   91.7835   92.8020  -45.0663 C   0  0  0  0  0  0  0  0  0  0  0  0
   91.4321   94.7562  -43.9868 C   0  0  0  0  0  0  0  0  0  0  0  0
   91.6660   93.7629  -43.0336 C   0  0  0  0  0  0  0  0  0  0  0  0
   91.1850   96.0725  -43.5484 C   0  0  0  0  0  0  0  0  0  0  0  0
   90.1057   89.7952  -49.2118 C   0  0  0  0  0  0  0  0  0  0  0  0
   89.1215   88.9832  -49.7756 C   0  0  0  0  0  0  0  0  0  0  0  0
   88.3858   90.8285  -51.1499 C   0  0  0  0  0  0  0  0  0  0  0  0
   91.9884   99.1729  -43.6535 C   0  0  0  0  0  0  0  0  0  0  0  0
   89.9527   99.2229  -45.1424 C   0  0  0  0  0  0  0  0  0  0  0  0
   91.7430  100.6288  -43.2798 C   0  0  0  0  0  0  0  0  0  0  0  0
   89.7184  100.6790  -44.7622 C   0  0  0  0  0  0  0  0  0  0  0  0
   90.6885   98.4648  -44.0372 C   0  0  0  0  0  0  0  0  0  0  0  0
   90.8767  102.8000  -44.1478 C   0  0  0  0  0  0  0  0  0  0  0  0
   88.1394   91.1601  -53.9036 C   0  0  0  0  0  0  0  0  0  0  0  0
   92.2499   89.9378  -47.9444 C   0  0  0  0  0  0  0  0  0  0  0  0
   92.1550   91.3082  -43.0945 C   0  0  0  0  0  0  0  0  0  0  0  0
   93.5882   91.2007  -42.6145 C   0  0  0  0  0  0  0  0  0  0  0  0
   89.1357   86.6724  -50.3843 C   0  0  0  0  0  0  0  0  0  0  0  0
   91.8764   92.5866  -43.7171 N   0  0  0  0  0  0  0  0  0  0  0  0
   90.9459   97.1032  -44.4401 N   0  0  0  0  0  0  0  0  0  0  0  0
   90.9545   89.3017  -48.2607 N   0  0  0  0  0  0  0  0  0  0  0  0
   91.0370  101.3282  -44.4169 N   0  3  0  0  0  0  0  0  0  0  0  0
   86.0827   90.6895  -52.3725 O   0  0  0  0  0  0  0  0  0  0  0  0
   87.2413   92.9185  -52.1780 O   0  0  0  0  0  0  0  0  0  0  0  0
   88.9849   87.6818  -49.3938 O   0  0  0  0  0  0  0  0  0  0  0  0
   93.8453   89.9893  -42.0772 F   0  0  0  0  0  0  0  0  0  0  0  0
   93.8758   92.1405  -41.6882 F   0  0  0  0  0  0  0  0  0  0  0  0
   94.4420   91.3753  -43.6487 F   0  0  0  0  0  0  0  0  0  0  0  0
   89.9897   87.0646  -51.3534 F   0  0  0  0  0  0  0  0  0  0  0  0
   87.9445   86.3422  -50.9277 F   0  0  0  0  0  0  0  0  0  0  0  0
   89.6485   85.5654  -49.8007 F   0  0  0  0  0  0  0  0  0  0  0  0
   87.3094   91.4757  -52.3627 S   0  0  0  0  0  0  0  0  0  0  0  0
   91.4088   95.5676  -40.1853 H   0  0  0  0  0  0  0  0  0  0  0  0
   91.8480   93.2382  -40.9298 H   0  0  0  0  0  0  0  0  0  0  0  0
   90.9914   97.3546  -41.8191 H   0  0  0  0  0  0  0  0  0  0  0  0
   90.9928   91.7664  -49.1842 H   0  0  0  0  0  0  0  0  0  0  0  0
   89.4751   92.6773  -50.8941 H   0  0  0  0  0  0  0  0  0  0  0  0
   91.3780   94.6180  -46.2251 H   0  0  0  0  0  0  0  0  0  0  0  0
   87.4962   88.8635  -51.1821 H   0  0  0  0  0  0  0  0  0  0  0  0
   92.7029   99.1331  -44.4865 H   0  0  0  0  0  0  0  0  0  0  0  0
   92.4584   98.6593  -42.8059 H   0  0  0  0  0  0  0  0  0  0  0  0
   88.9861   98.7457  -45.3442 H   0  0  0  0  0  0  0  0  0  0  0  0
   90.5282   99.1845  -46.0767 H   0  0  0  0  0  0  0  0  0  0  0  0
   91.1113  100.7202  -42.3892 H   0  0  0  0  0  0  0  0  0  0  0  0
   92.6918  101.1488  -43.1110 H   0  0  0  0  0  0  0  0  0  0  0  0
   89.2885  101.2327  -45.6033 H   0  0  0  0  0  0  0  0  0  0  0  0
   89.0630  100.7718  -43.8891 H   0  0  0  0  0  0  0  0  0  0  0  0
   90.0342   98.4360  -43.1408 H   0  0  0  0  0  0  0  0  0  0  0  0
   90.2372  102.9110  -43.2706 H   0  0  0  0  0  0  0  0  0  0  0  0
   90.4178  103.2528  -45.0288 H   0  0  0  0  0  0  0  0  0  0  0  0
   91.8693  103.2153  -43.9647 H   0  0  0  0  0  0  0  0  0  0  0  0
   87.5174   91.5422  -54.7144 H   0  0  0  0  0  0  0  0  0  0  0  0
   88.2800   90.0833  -54.0045 H   0  0  0  0  0  0  0  0  0  0  0  0
   89.1028   91.6716  -53.8870 H   0  0  0  0  0  0  0  0  0  0  0  0
   92.9458   89.1625  -47.6105 H   0  0  0  0  0  0  0  0  0  0  0  0
   92.6521   90.3792  -48.8619 H   0  0  0  0  0  0  0  0  0  0  0  0
   91.4711   91.1546  -42.2512 H   0  0  0  0  0  0  0  0  0  0  0  0
   91.9428   90.4999  -43.8047 H   0  0  0  0  0  0  0  0  0  0  0  0
   90.9505   96.8938  -45.4308 H   0  0  0  0  0  0  0  0  0  0  0  0
   90.7236   88.4814  -47.7402 H   0  0  0  0  0  0  0  0  0  0  0  0
   91.6420  101.2498  -45.2458 H   0  0  0  0  0  0  0  0  0  0  0  0
  1  2  3  0  0  0  0
  1 10  1  0  0  0  0
  2 24  1  0  0  0  0
  3  4  1  0  0  0  0
  3  5  2  0  0  0  0
  4 12  2  0  0  0  0
  5 13  1  0  0  0  0
  6  7  2  0  0  0  0
  6 14  1  0  0  0  0
  7 16  1  0  0  0  0
  8 10  2  0  0  0  0
  8 11  1  0  0  0  0
  9 15  1  0  0  0  0
  9 16  2  0  0  0  0
 10 28  1  0  0  0  0
 11 12  1  0  0  0  0
 11 13  2  0  0  0  0
 12 28  1  0  0  0  0
 13 29  1  0  0  0  0
 14 15  2  0  0  0  0
 14 30  1  0  0  0  0
 15 34  1  0  0  0  0
 16 41  1  0  0  0  0
 17 19  1  0  0  0  0
 17 21  1  0  0  0  0
 18 20  1  0  0  0  0
 18 21  1  0  0  0  0
 19 31  1  0  0  0  0
 20 31  1  0  0  0  0
 21 29  1  0  0  0  0
 22 31  1  0  0  0  0
 23 41  1  0  0  0  0
 24 30  1  0  0  0  0
 25 26  1  0  0  0  0
 25 28  1  0  0  0  0
 26 35  1  0  0  0  0
 26 36  1  0  0  0  0
 26 37  1  0  0  0  0
 27 34  1  0  0  0  0
 27 38  1  0  0  0  0
 27 39  1  0  0  0  0
 27 40  1  0  0  0  0
 32 41  2  0  0  0  0
 33 41  2  0  0  0  0
  3 42  1  0  0  0  0
  4 43  1  0  0  0  0
  5 44  1  0  0  0  0
  6 45  1  0  0  0  0
  7 46  1  0  0  0  0
  8 47  1  0  0  0  0
  9 48  1  0  0  0  0
 17 49  1  0  0  0  0
 17 50  1  0  0  0  0
 18 51  1  0  0  0  0
 18 52  1  0  0  0  0
 19 53  1  0  0  0  0
 19 54  1  0  0  0  0
 20 55  1  0  0  0  0
 20 56  1  0  0  0  0
 21 57  1  0  0  0  0
 22 58  1  0  0  0  0
 22 59  1  0  0  0  0
 22 60  1  0  0  0  0
 23 61  1  0  0  0  0
 23 62  1  0  0  0  0
 23 63  1  0  0  0  0
 24 64  1  0  0  0  0
 24 65  1  0  0  0  0
 25 66  1  0  0  0  0
 25 67  1  0  0  0  0
 29 68  1  0  0  0  0
 30 69  1  0  0  0  0
 31 70  1  0  0  0  0
M  CHG  1  31   1
M  END
> <HYBRID receptor title>
9S9P-CLEAN(A) > A1JMR(A-402)

> <HYBRID receptor filename>
../9S9P-CLEAN_A__DU__A1JMR_A-402.oedu

> <HYBRID Chemgauss4 score>
-12.328015

> <HYBRID receptor title>
9S9P-CLEAN(A) > A1JMR(A-402)

> <HYBRID receptor filename>
../9S9P-CLEAN_A__DU__A1JMR_A-402.oedu

> <Dock Type>
Hybrid

$$$$
Vu2025_02_1
  -OEChem-07272613503D

 62 65  0     0  0  0  0  0  0999 V2000
   91.8826   91.4579  -46.4378 C   0  0  0  0  0  0  0  0  0  0  0  0
   91.9161   90.6109  -47.2893 C   0  0  0  0  0  0  0  0  0  0  0  0
   88.3183   91.0096  -51.6083 C   0  0  0  0  0  0  0  0  0  0  0  0
   89.3923   91.6808  -51.0237 C   0  0  0  0  0  0  0  0  0  0  0  0
   88.0081   89.7097  -51.2087 C   0  0  0  0  0  0  0  0  0  0  0  0
   91.9805   95.0278  -41.6199 C   0  0  0  0  0  0  0  0  0  0  0  0
   92.2105   93.7199  -42.0548 C   0  0  0  0  0  0  0  0  0  0  0  0
   90.1558   91.0525  -50.0396 C   0  0  0  0  0  0  0  0  0  0  0  0
   88.7715   89.0815  -50.2246 C   0  0  0  0  0  0  0  0  0  0  0  0
   91.4900   93.7806  -45.5941 C   0  0  0  0  0  0  0  0  0  0  0  0
   91.3648   95.7275  -43.8623 C   0  0  0  0  0  0  0  0  0  0  0  0
   91.8419   92.4608  -45.4305 C   0  0  0  0  0  0  0  0  0  0  0  0
   91.5899   94.4152  -44.3241 C   0  0  0  0  0  0  0  0  0  0  0  0
   91.5643   96.0174  -42.5079 C   0  0  0  0  0  0  0  0  0  0  0  0
   92.0069   93.4437  -43.4118 C   0  0  0  0  0  0  0  0  0  0  0  0
   89.8455   89.7526  -49.6400 C   0  0  0  0  0  0  0  0  0  0  0  0
   91.3281   97.3974  -42.0128 C   0  0  0  0  0  0  0  0  0  0  0  0
   92.2439  100.6886  -43.4538 C   0  0  0  0  0  0  0  0  0  0  0  0
   89.8578  100.2338  -42.7807 C   0  0  0  0  0  0  0  0  0  0  0  0
   91.8145  100.7642  -44.9137 C   0  0  0  0  0  0  0  0  0  0  0  0
   89.4345  100.3108  -44.2426 C   0  0  0  0  0  0  0  0  0  0  0  0
   91.3185   99.8081  -42.6108 C   0  0  0  0  0  0  0  0  0  0  0  0
   94.0687   90.9572  -43.2827 C   0  0  0  0  0  0  0  0  0  0  0  0
   90.1591  102.6643  -44.7909 C   0  0  0  0  0  0  0  0  0  0  0  0
   91.9591   89.5787  -48.3260 C   0  0  0  0  0  0  0  0  0  0  0  0
   92.5709   91.0073  -43.5297 C   0  0  0  0  0  0  0  0  0  0  0  0
   92.1523   92.2668  -44.1109 N   0  0  0  0  0  0  0  0  0  0  0  0
   90.5935   89.1365  -48.6760 N   0  0  0  0  0  0  0  0  0  0  0  0
   91.4901   98.4112  -42.9450 N   0  0  0  0  0  0  0  0  0  0  0  0
   90.3716  101.1934  -45.0298 N   0  3  0  0  0  0  0  0  0  0  0  0
   91.0296   97.5691  -40.8339 O   0  0  0  0  0  0  0  0  0  0  0  0
   87.7247   91.4985  -52.3751 H   0  0  0  0  0  0  0  0  0  0  0  0
   89.6337   92.6931  -51.3346 H   0  0  0  0  0  0  0  0  0  0  0  0
   87.1718   89.1871  -51.6639 H   0  0  0  0  0  0  0  0  0  0  0  0
   92.1327   95.2644  -40.5689 H   0  0  0  0  0  0  0  0  0  0  0  0
   92.5350   92.9537  -41.3588 H   0  0  0  0  0  0  0  0  0  0  0  0
   90.9909   91.5849  -49.5918 H   0  0  0  0  0  0  0  0  0  0  0  0
   88.5210   88.0683  -49.9202 H   0  0  0  0  0  0  0  0  0  0  0  0
   91.1913   94.2474  -46.5237 H   0  0  0  0  0  0  0  0  0  0  0  0
   91.0395   96.5012  -44.5528 H   0  0  0  0  0  0  0  0  0  0  0  0
   93.2775  100.3072  -43.4011 H   0  0  0  0  0  0  0  0  0  0  0  0
   92.2706  101.7083  -43.0380 H   0  0  0  0  0  0  0  0  0  0  0  0
   89.6987  101.2178  -42.3125 H   0  0  0  0  0  0  0  0  0  0  0  0
   89.1963   99.5290  -42.2505 H   0  0  0  0  0  0  0  0  0  0  0  0
   92.4228  101.4877  -45.4800 H   0  0  0  0  0  0  0  0  0  0  0  0
   91.9038   99.7772  -45.3928 H   0  0  0  0  0  0  0  0  0  0  0  0
   89.4582   99.3112  -44.7032 H   0  0  0  0  0  0  0  0  0  0  0  0
   88.4191  100.7249  -44.3503 H   0  0  0  0  0  0  0  0  0  0  0  0
   91.5984   99.9033  -41.5546 H   0  0  0  0  0  0  0  0  0  0  0  0
   94.6285   91.0963  -44.2135 H   0  0  0  0  0  0  0  0  0  0  0  0
   94.3510   89.9895  -42.8565 H   0  0  0  0  0  0  0  0  0  0  0  0
   94.3808   91.7412  -42.5850 H   0  0  0  0  0  0  0  0  0  0  0  0
   90.4125  102.8733  -43.7503 H   0  0  0  0  0  0  0  0  0  0  0  0
   89.1096  102.8875  -44.9925 H   0  0  0  0  0  0  0  0  0  0  0  0
   90.8145  103.2105  -45.4716 H   0  0  0  0  0  0  0  0  0  0  0  0
   92.5295   88.7096  -47.9850 H   0  0  0  0  0  0  0  0  0  0  0  0
   92.4407   89.9642  -49.2303 H   0  0  0  0  0  0  0  0  0  0  0  0
   92.0198   90.8673  -42.5935 H   0  0  0  0  0  0  0  0  0  0  0  0
   92.2651   90.2033  -44.2091 H   0  0  0  0  0  0  0  0  0  0  0  0
   90.2363   88.3541  -48.1687 H   0  0  0  0  0  0  0  0  0  0  0  0
   91.7999   98.1947  -43.8873 H   0  0  0  0  0  0  0  0  0  0  0  0
   90.1137  101.0413  -46.0480 H   0  0  0  0  0  0  0  0  0  0  0  0
  1  2  3  0  0  0  0
  1 12  1  0  0  0  0
  2 25  1  0  0  0  0
  3  4  1  0  0  0  0
  3  5  2  0  0  0  0
  4  8  2  0  0  0  0
  5  9  1  0  0  0  0
  6  7  2  0  0  0  0
  6 14  1  0  0  0  0
  7 15  1  0  0  0  0
  8 16  1  0  0  0  0
  9 16  2  0  0  0  0
 10 12  2  0  0  0  0
 10 13  1  0  0  0  0
 11 13  1  0  0  0  0
 11 14  2  0  0  0  0
 12 27  1  0  0  0  0
 13 15  2  0  0  0  0
 14 17  1  0  0  0  0
 15 27  1  0  0  0  0
 16 28  1  0  0  0  0
 17 29  1  0  0  0  0
 17 31  2  0  0  0  0
 18 20  1  0  0  0  0
 18 22  1  0  0  0  0
 19 21  1  0  0  0  0
 19 22  1  0  0  0  0
 20 30  1  0  0  0  0
 21 30  1  0  0  0  0
 22 29  1  0  0  0  0
 23 26  1  0  0  0  0
 24 30  1  0  0  0  0
 25 28  1  0  0  0  0
 26 27  1  0  0  0  0
  3 32  1  0  0  0  0
  4 33  1  0  0  0  0
  5 34  1  0  0  0  0
  6 35  1  0  0  0  0
  7 36  1  0  0  0  0
  8 37  1  0  0  0  0
  9 38  1  0  0  0  0
 10 39  1  0  0  0  0
 11 40  1  0  0  0  0
 18 41  1  0  0  0  0
 18 42  1  0  0  0  0
 19 43  1  0  0  0  0
 19 44  1  0  0  0  0
 20 45  1  0  0  0  0
 20 46  1  0  0  0  0
 21 47  1  0  0  0  0
 21 48  1  0  0  0  0
 22 49  1  0  0  0  0
 23 50  1  0  0  0  0
 23 51  1  0  0  0  0
 23 52  1  0  0  0  0
 24 53  1  0  0  0  0
 24 54  1  0  0  0  0
 24 55  1  0  0  0  0
 25 56  1  0  0  0  0
 25 57  1  0  0  0  0
 26 58  1  0  0  0  0
 26 59  1  0  0  0  0
 28 60  1  0  0  0  0
 29 61  1  0  0  0  0
 30 62  1  0  0  0  0
M  CHG  1  30   1
M  END
> <HYBRID receptor title>
9S9P-CLEAN(A) > A1JMR(A-402)

> <HYBRID receptor filename>
../9S9P-CLEAN_A__DU__A1JMR_A-402.oedu

> <HYBRID Chemgauss4 score>
-10.432888

> <HYBRID receptor title>
9S9P-CLEAN(A) > A1JMR(A-402)

> <HYBRID receptor filename>
../9S9P-CLEAN_A__DU__A1JMR_A-402.oedu

> <Dock Type>
Hybrid

$$$$
Vu2025_21_1
  -OEChem-07272613503D

 70 73  0     1  0  0  0  0  0999 V2000
   91.9146   91.6989  -46.6032 C   0  0  0  0  0  0  0  0  0  0  0  0
   92.0295   90.8831  -47.4778 C   0  0  0  0  0  0  0  0  0  0  0  0
   91.2321   95.0533  -41.6790 C   0  0  0  0  0  0  0  0  0  0  0  0
   91.2748   93.7368  -42.1456 C   0  0  0  0  0  0  0  0  0  0  0  0
   91.3902   96.1294  -42.5496 C   0  0  0  0  0  0  0  0  0  0  0  0
   89.5432   90.4500  -49.5735 C   0  0  0  0  0  0  0  0  0  0  0  0
   88.3519   90.6883  -50.2589 C   0  0  0  0  0  0  0  0  0  0  0  0
   91.8285   94.0325  -45.7030 C   0  0  0  0  0  0  0  0  0  0  0  0
   87.8284   88.3312  -50.1707 C   0  0  0  0  0  0  0  0  0  0  0  0
   91.7773   92.6644  -45.5682 C   0  0  0  0  0  0  0  0  0  0  0  0
   91.6427   94.6014  -44.4117 C   0  0  0  0  0  0  0  0  0  0  0  0
   91.4815   93.5421  -43.5162 C   0  0  0  0  0  0  0  0  0  0  0  0
   91.5964   95.9204  -43.9178 C   0  0  0  0  0  0  0  0  0  0  0  0
   89.8769   89.1521  -49.1866 C   0  0  0  0  0  0  0  0  0  0  0  0
   89.0197   88.0929  -49.4853 C   0  0  0  0  0  0  0  0  0  0  0  0
   87.4947   89.6291  -50.5576 C   0  0  0  0  0  0  0  0  0  0  0  0
   92.4251   99.3021  -45.2806 C   0  0  0  0  0  0  0  0  0  0  0  0
   92.3421  100.7601  -44.8495 C   0  0  0  0  0  0  0  0  0  0  0  0
   90.1850  100.2987  -43.6504 C   0  0  0  0  0  0  0  0  0  0  0  0
   91.7086   98.3819  -44.2900 C   0  0  1  0  0  0  0  0  0  0  0  0
   90.2683   98.8381  -44.0634 C   0  0  2  0  0  0  0  0  0  0  0  0
   90.7495  102.6182  -44.3737 C   0  0  0  0  0  0  0  0  0  0  0  0
   90.0761   86.0377  -50.0484 C   0  0  0  0  0  0  0  0  0  0  0  0
   86.4414   89.7667  -53.1316 C   0  0  0  0  0  0  0  0  0  0  0  0
   92.1716   89.8899  -48.5434 C   0  0  0  0  0  0  0  0  0  0  0  0
   91.4525   91.0447  -43.6897 C   0  0  0  0  0  0  0  0  0  0  0  0
   92.7156   90.6059  -42.9768 C   0  0  0  0  0  0  0  0  0  0  0  0
   91.5678   92.3778  -44.2456 N   0  0  0  0  0  0  0  0  0  0  0  0
   91.7488   97.0147  -44.7509 N   0  0  0  0  0  0  0  0  0  0  0  0
   91.0468   88.9324  -48.5148 N   0  0  0  0  0  0  0  0  0  0  0  0
   90.8950  101.1519  -44.6759 N   0  3  1  0  0  0  0  0  0  0  0  0
   85.0633   88.8563  -51.1147 O   0  0  0  0  0  0  0  0  0  0  0  0
   85.6202   91.3128  -51.1792 O   0  0  0  0  0  0  0  0  0  0  0  0
   89.3289   86.8175  -49.1171 O   0  0  0  0  0  0  0  0  0  0  0  0
   89.5645   98.6842  -45.2213 F   0  0  0  0  0  0  0  0  0  0  0  0
   92.6096   89.3463  -42.5030 F   0  0  0  0  0  0  0  0  0  0  0  0
   93.0125   91.4204  -41.9413 F   0  0  0  0  0  0  0  0  0  0  0  0
   93.7662   90.6321  -43.8282 F   0  0  0  0  0  0  0  0  0  0  0  0
   86.0036   89.9280  -51.4155 S   0  0  0  0  0  0  0  0  0  0  0  0
   91.0732   95.2392  -40.6197 H   0  0  0  0  0  0  0  0  0  0  0  0
   91.1512   92.9032  -41.4626 H   0  0  0  0  0  0  0  0  0  0  0  0
   91.3512   97.1407  -42.1507 H   0  0  0  0  0  0  0  0  0  0  0  0
   90.2029   91.2833  -49.3455 H   0  0  0  0  0  0  0  0  0  0  0  0
   88.1010   91.7033  -50.5550 H   0  0  0  0  0  0  0  0  0  0  0  0
   91.9834   94.5717  -46.6287 H   0  0  0  0  0  0  0  0  0  0  0  0
   87.1635   87.5030  -50.4023 H   0  0  0  0  0  0  0  0  0  0  0  0
   91.9876   99.1993  -46.2826 H   0  0  0  0  0  0  0  0  0  0  0  0
   93.4799   99.0123  -45.3626 H   0  0  0  0  0  0  0  0  0  0  0  0
   92.8511  100.9330  -43.8946 H   0  0  0  0  0  0  0  0  0  0  0  0
   92.7707  101.4133  -45.6166 H   0  0  0  0  0  0  0  0  0  0  0  0
   89.1425  100.6318  -43.6291 H   0  0  0  0  0  0  0  0  0  0  0  0
   90.6590  100.4797  -42.6798 H   0  0  0  0  0  0  0  0  0  0  0  0
   92.2474   98.4344  -43.3212 H   0  0  0  0  0  0  0  0  0  0  0  0
   89.7836   98.2131  -43.3049 H   0  0  0  0  0  0  0  0  0  0  0  0
   91.2397  102.8121  -43.4182 H   0  0  0  0  0  0  0  0  0  0  0  0
   89.6828  102.8445  -44.3215 H   0  0  0  0  0  0  0  0  0  0  0  0
   91.2299  103.1740  -45.1809 H   0  0  0  0  0  0  0  0  0  0  0  0
   90.2549   85.0430  -49.6320 H   0  0  0  0  0  0  0  0  0  0  0  0
   89.5039   85.9451  -50.9746 H   0  0  0  0  0  0  0  0  0  0  0  0
   91.0271   86.5325  -50.2587 H   0  0  0  0  0  0  0  0  0  0  0  0
   85.5482   89.9425  -53.7329 H   0  0  0  0  0  0  0  0  0  0  0  0
   86.8208   88.7576  -53.2966 H   0  0  0  0  0  0  0  0  0  0  0  0
   87.2094   90.5064  -53.3621 H   0  0  0  0  0  0  0  0  0  0  0  0
   93.1062   89.3321  -48.4318 H   0  0  0  0  0  0  0  0  0  0  0  0
   92.1856   90.3785  -49.5228 H   0  0  0  0  0  0  0  0  0  0  0  0
   90.6054   91.0097  -42.9943 H   0  0  0  0  0  0  0  0  0  0  0  0
   91.2147   90.3328  -44.4894 H   0  0  0  0  0  0  0  0  0  0  0  0
   91.8963   96.8508  -45.7393 H   0  0  0  0  0  0  0  0  0  0  0  0
   91.1824   88.1039  -47.9742 H   0  0  0  0  0  0  0  0  0  0  0  0
   90.4265  100.9938  -45.5787 H   0  0  0  0  0  0  0  0  0  0  0  0
  1  2  3  0  0  0  0
  1 10  1  0  0  0  0
  2 25  1  0  0  0  0
  3  4  1  0  0  0  0
  3  5  2  0  0  0  0
  4 12  2  0  0  0  0
  5 13  1  0  0  0  0
  6  7  2  0  0  0  0
  6 14  1  0  0  0  0
  7 16  1  0  0  0  0
  8 10  2  0  0  0  0
  8 11  1  0  0  0  0
  9 15  1  0  0  0  0
  9 16  2  0  0  0  0
 10 28  1  0  0  0  0
 11 12  1  0  0  0  0
 11 13  2  0  0  0  0
 12 28  1  0  0  0  0
 13 29  1  0  0  0  0
 14 15  2  0  0  0  0
 14 30  1  0  0  0  0
 15 34  1  0  0  0  0
 16 39  1  0  0  0  0
 17 18  1  0  0  0  0
 17 20  1  0  0  0  0
 18 31  1  0  0  0  0
 19 21  1  0  0  0  0
 19 31  1  0  0  0  0
 20 21  1  0  0  0  0
 20 29  1  0  0  0  0
 21 35  1  0  0  0  0
 22 31  1  0  0  0  0
 23 34  1  0  0  0  0
 24 39  1  0  0  0  0
 25 30  1  0  0  0  0
 26 27  1  0  0  0  0
 26 28  1  0  0  0  0
 27 36  1  0  0  0  0
 27 37  1  0  0  0  0
 27 38  1  0  0  0  0
 32 39  2  0  0  0  0
 33 39  2  0  0  0  0
  3 40  1  0  0  0  0
  4 41  1  0  0  0  0
  5 42  1  0  0  0  0
  6 43  1  0  0  0  0
  7 44  1  0  0  0  0
  8 45  1  0  0  0  0
  9 46  1  0  0  0  0
 17 47  1  0  0  0  0
 17 48  1  0  0  0  0
 18 49  1  0  0  0  0
 18 50  1  0  0  0  0
 19 51  1  0  0  0  0
 19 52  1  0  0  0  0
 20 53  1  0  0  0  0
 21 54  1  0  0  0  0
 22 55  1  0  0  0  0
 22 56  1  0  0  0  0
 22 57  1  0  0  0  0
 23 58  1  0  0  0  0
 23 59  1  0  0  0  0
 23 60  1  0  0  0  0
 24 61  1  0  0  0  0
 24 62  1  0  0  0  0
 24 63  1  0  0  0  0
 25 64  1  0  0  0  0
 25 65  1  0  0  0  0
 26 66  1  0  0  0  0
 26 67  1  0  0  0  0
 29 68  1  0  0  0  0
 30 69  1  0  0  0  0
 31 70  1  0  0  0  0
M  CHG  1  31   1
M  END
> <HYBRID receptor title>
9S9P-CLEAN(A) > A1JMR(A-402)

> <HYBRID receptor filename>
../9S9P-CLEAN_A__DU__A1JMR_A-402.oedu

> <HYBRID Chemgauss4 score>
-8.546848

> <HYBRID receptor title>
9S9P-CLEAN(A) > A1JMR(A-402)

> <HYBRID receptor filename>
../9S9P-CLEAN_A__DU__A1JMR_A-402.oedu

> <Dock Type>
Hybrid

$$$$
Vu2025_08_1
  -OEChem-07272613503D

 68 71  0     0  0  0  0  0  0999 V2000
   91.6701   91.9618  -45.7406 C   0  0  0  0  0  0  0  0  0  0  0  0
   91.6897   91.0316  -46.5008 C   0  0  0  0  0  0  0  0  0  0  0  0
   88.7360   92.2605  -53.4272 C   0  0  0  0  0  0  0  0  0  0  0  0
   91.8322   96.0005  -41.3102 C   0  0  0  0  0  0  0  0  0  0  0  0
   91.4507   96.9055  -42.2983 C   0  0  0  0  0  0  0  0  0  0  0  0
   92.0281   94.6492  -41.6075 C   0  0  0  0  0  0  0  0  0  0  0  0
   90.4165   91.3150  -49.5707 C   0  0  0  0  0  0  0  0  0  0  0  0
   89.7951   91.9992  -50.6094 C   0  0  0  0  0  0  0  0  0  0  0  0
   91.3349   94.3687  -45.1416 C   0  0  0  0  0  0  0  0  0  0  0  0
   92.4137   91.2740  -50.8619 C   0  0  0  0  0  0  0  0  0  0  0  0
   91.6480   93.0632  -44.8412 C   0  0  0  0  0  0  0  0  0  0  0  0
   91.4437   95.1264  -43.9418 C   0  0  0  0  0  0  0  0  0  0  0  0
   91.2528   96.4847  -43.6181 C   0  0  0  0  0  0  0  0  0  0  0  0
   91.8264   94.2419  -42.9313 C   0  0  0  0  0  0  0  0  0  0  0  0
   91.7505   90.9417  -49.6911 C   0  0  0  0  0  0  0  0  0  0  0  0
   90.5453   92.2843  -51.7388 C   0  0  0  0  0  0  0  0  0  0  0  0
   89.5022  100.0425  -45.4412 C   0  0  0  0  0  0  0  0  0  0  0  0
   91.6812  101.2124  -44.9979 C   0  0  0  0  0  0  0  0  0  0  0  0
   89.1457  101.2045  -46.3622 C   0  0  0  0  0  0  0  0  0  0  0  0
   91.2035  102.3095  -45.9435 C   0  0  0  0  0  0  0  0  0  0  0  0
   91.0173   99.8891  -45.3632 C   0  0  0  0  0  0  0  0  0  0  0  0
   89.3634   94.4418  -52.5343 C   0  0  0  0  0  0  0  0  0  0  0  0
   90.9238   93.2232  -54.0402 C   0  0  0  0  0  0  0  0  0  0  0  0
   91.7119   89.8975  -47.4257 C   0  0  0  0  0  0  0  0  0  0  0  0
   90.8426   97.5049  -44.6390 C   0  0  0  0  0  0  0  0  0  0  0  0
   92.3227   91.7917  -42.7952 C   0  0  0  0  0  0  0  0  0  0  0  0
   89.9100   93.0166  -52.8733 C   0  0  0  0  0  0  0  0  0  0  0  0
   93.8124   91.7260  -42.5259 C   0  0  0  0  0  0  0  0  0  0  0  0
   87.8333   91.6559  -53.8347 N   0  0  0  0  0  0  0  0  0  0  0  0
   91.8430   91.9380  -51.8921 N   0  0  0  0  0  0  0  0  0  0  0  0
   91.9433   92.9963  -43.5057 N   0  0  0  0  0  0  0  0  0  0  0  0
   92.3871   90.2682  -48.6864 N   0  0  0  0  0  0  0  0  0  0  0  0
   91.3568   98.8686  -44.3393 N   0  3  0  0  0  0  0  0  0  0  0  0
   89.7787  102.4085  -45.9264 O   0  0  0  0  0  0  0  0  0  0  0  0
   94.1572   90.5789  -41.9034 F   0  0  0  0  0  0  0  0  0  0  0  0
   94.2271   92.7594  -41.7617 F   0  0  0  0  0  0  0  0  0  0  0  0
   94.5006   91.7793  -43.6889 F   0  0  0  0  0  0  0  0  0  0  0  0
   91.9800   96.3494  -40.2912 H   0  0  0  0  0  0  0  0  0  0  0  0
   91.3082   97.9502  -42.0315 H   0  0  0  0  0  0  0  0  0  0  0  0
   92.3257   93.9493  -40.8341 H   0  0  0  0  0  0  0  0  0  0  0  0
   89.8521   91.0767  -48.6733 H   0  0  0  0  0  0  0  0  0  0  0  0
   88.7545   92.2951  -50.5280 H   0  0  0  0  0  0  0  0  0  0  0  0
   91.0579   94.7441  -46.1181 H   0  0  0  0  0  0  0  0  0  0  0  0
   93.4559   91.0102  -51.0142 H   0  0  0  0  0  0  0  0  0  0  0  0
   89.1022  100.2530  -44.4409 H   0  0  0  0  0  0  0  0  0  0  0  0
   89.0339   99.1201  -45.8020 H   0  0  0  0  0  0  0  0  0  0  0  0
   92.7725  101.1274  -45.0417 H   0  0  0  0  0  0  0  0  0  0  0  0
   91.4069  101.4902  -43.9720 H   0  0  0  0  0  0  0  0  0  0  0  0
   89.4351  100.9956  -47.3988 H   0  0  0  0  0  0  0  0  0  0  0  0
   88.0641  101.3725  -46.3480 H   0  0  0  0  0  0  0  0  0  0  0  0
   91.6087  103.2759  -45.6270 H   0  0  0  0  0  0  0  0  0  0  0  0
   91.5436  102.1276  -46.9698 H   0  0  0  0  0  0  0  0  0  0  0  0
   91.4128   99.5133  -46.3139 H   0  0  0  0  0  0  0  0  0  0  0  0
   90.1333   95.1023  -52.1157 H   0  0  0  0  0  0  0  0  0  0  0  0
   88.9770   94.9382  -53.4327 H   0  0  0  0  0  0  0  0  0  0  0  0
   88.5515   94.3862  -51.7997 H   0  0  0  0  0  0  0  0  0  0  0  0
   91.8046   93.7734  -53.6874 H   0  0  0  0  0  0  0  0  0  0  0  0
   91.2735   92.2665  -54.4460 H   0  0  0  0  0  0  0  0  0  0  0  0
   90.4954   93.7825  -54.8813 H   0  0  0  0  0  0  0  0  0  0  0  0
   90.6954   89.5674  -47.6595 H   0  0  0  0  0  0  0  0  0  0  0  0
   92.2471   89.0520  -46.9819 H   0  0  0  0  0  0  0  0  0  0  0  0
   89.7521   97.5862  -44.7009 H   0  0  0  0  0  0  0  0  0  0  0  0
   91.2143   97.2403  -45.6350 H   0  0  0  0  0  0  0  0  0  0  0  0
   91.7738   91.7370  -41.8475 H   0  0  0  0  0  0  0  0  0  0  0  0
   92.0137   90.9120  -43.3728 H   0  0  0  0  0  0  0  0  0  0  0  0
   93.3453   90.0005  -48.7725 H   0  0  0  0  0  0  0  0  0  0  0  0
   90.9917   99.1712  -43.4248 H   0  0  0  0  0  0  0  0  0  0  0  0
   92.3796   98.8249  -44.2300 H   0  0  0  0  0  0  0  0  0  0  0  0
  1  2  3  0  0  0  0
  1 11  1  0  0  0  0
  2 24  1  0  0  0  0
  3 27  1  0  0  0  0
  3 29  3  0  0  0  0
  4  5  1  0  0  0  0
  4  6  2  0  0  0  0
  5 13  2  0  0  0  0
  6 14  1  0  0  0  0
  7  8  2  0  0  0  0
  7 15  1  0  0  0  0
  8 16  1  0  0  0  0
  9 11  2  0  0  0  0
  9 12  1  0  0  0  0
 10 15  2  0  0  0  0
 10 30  1  0  0  0  0
 11 31  1  0  0  0  0
 12 13  1  0  0  0  0
 12 14  2  0  0  0  0
 13 25  1  0  0  0  0
 14 31  1  0  0  0  0
 15 32  1  0  0  0  0
 16 27  1  0  0  0  0
 16 30  2  0  0  0  0
 17 19  1  0  0  0  0
 17 21  1  0  0  0  0
 18 20  1  0  0  0  0
 18 21  1  0  0  0  0
 19 34  1  0  0  0  0
 20 34  1  0  0  0  0
 21 33  1  0  0  0  0
 22 27  1  0  0  0  0
 23 27  1  0  0  0  0
 24 32  1  0  0  0  0
 25 33  1  0  0  0  0
 26 28  1  0  0  0  0
 26 31  1  0  0  0  0
 28 35  1  0  0  0  0
 28 36  1  0  0  0  0
 28 37  1  0  0  0  0
  4 38  1  0  0  0  0
  5 39  1  0  0  0  0
  6 40  1  0  0  0  0
  7 41  1  0  0  0  0
  8 42  1  0  0  0  0
  9 43  1  0  0  0  0
 10 44  1  0  0  0  0
 17 45  1  0  0  0  0
 17 46  1  0  0  0  0
 18 47  1  0  0  0  0
 18 48  1  0  0  0  0
 19 49  1  0  0  0  0
 19 50  1  0  0  0  0
 20 51  1  0  0  0  0
 20 52  1  0  0  0  0
 21 53  1  0  0  0  0
 22 54  1  0  0  0  0
 22 55  1  0  0  0  0
 22 56  1  0  0  0  0
 23 57  1  0  0  0  0
 23 58  1  0  0  0  0
 23 59  1  0  0  0  0
 24 60  1  0  0  0  0
 24 61  1  0  0  0  0
 25 62  1  0  0  0  0
 25 63  1  0  0  0  0
 26 64  1  0  0  0  0
 26 65  1  0  0  0  0
 32 66  1  0  0  0  0
 33 67  1  0  0  0  0
 33 68  1  0  0  0  0
M  CHG  1  33   1
M  END
> <HYBRID receptor title>
9S9P-CLEAN(A) > A1JMR(A-402)

> <HYBRID receptor filename>
../9S9P-CLEAN_A__DU__A1JMR_A-402.oedu

> <HYBRID Chemgauss4 score>
-8.011498

> <HYBRID receptor title>
9S9P-CLEAN(A) > A1JMR(A-402)

> <HYBRID receptor filename>
../9S9P-CLEAN_A__DU__A1JMR_A-402.oedu

> <Dock Type>
Hybrid

$$$$
Vu2025_03_1
  -OEChem-07272613503D

 59 62  0     0  0  0  0  0  0999 V2000
   91.7368   92.1339  -46.2741 C   0  0  0  0  0  0  0  0  0  0  0  0
   91.8166   91.3260  -47.1599 C   0  0  0  0  0  0  0  0  0  0  0  0
   87.1529   88.5564  -48.6883 C   0  0  0  0  0  0  0  0  0  0  0  0
   87.8793   89.5206  -49.3871 C   0  0  0  0  0  0  0  0  0  0  0  0
   87.7831   87.7760  -47.7191 C   0  0  0  0  0  0  0  0  0  0  0  0
   91.3314   95.4426  -41.2885 C   0  0  0  0  0  0  0  0  0  0  0  0
   91.4087   94.1309  -41.7642 C   0  0  0  0  0  0  0  0  0  0  0  0
   89.2354   89.7047  -49.1167 C   0  0  0  0  0  0  0  0  0  0  0  0
   89.1393   87.9601  -47.4487 C   0  0  0  0  0  0  0  0  0  0  0  0
   91.5956   94.4583  -45.3569 C   0  0  0  0  0  0  0  0  0  0  0  0
   91.4233   96.3293  -43.5473 C   0  0  0  0  0  0  0  0  0  0  0  0
   91.6411   93.0897  -45.2252 C   0  0  0  0  0  0  0  0  0  0  0  0
   91.5017   95.0154  -44.0506 C   0  0  0  0  0  0  0  0  0  0  0  0
   91.3385   96.5259  -42.1644 C   0  0  0  0  0  0  0  0  0  0  0  0
   91.4928   93.9486  -43.1495 C   0  0  0  0  0  0  0  0  0  0  0  0
   89.8656   88.9243  -48.1475 C   0  0  0  0  0  0  0  0  0  0  0  0
   92.2991  101.2884  -43.0432 C   0  0  0  0  0  0  0  0  0  0  0  0
   90.0231  100.7523  -42.1090 C   0  0  0  0  0  0  0  0  0  0  0  0
   91.6164  101.4967  -44.3913 C   0  0  0  0  0  0  0  0  0  0  0  0
   89.4731  100.9922  -43.5113 C   0  0  0  0  0  0  0  0  0  0  0  0
   91.5001  100.3616  -42.1291 C   0  0  0  0  0  0  0  0  0  0  0  0
   92.9561   91.0952  -42.7502 C   0  0  0  0  0  0  0  0  0  0  0  0
   91.9156   90.3431  -48.2397 C   0  0  0  0  0  0  0  0  0  0  0  0
   91.2574   97.9222  -41.6211 C   0  0  0  0  0  0  0  0  0  0  0  0
   91.6002   91.4540  -43.3330 C   0  0  0  0  0  0  0  0  0  0  0  0
   91.5787   92.7915  -43.8902 N   0  0  0  0  0  0  0  0  0  0  0  0
   91.1944   89.1041  -47.8825 N   0  0  0  0  0  0  0  0  0  0  0  0
   91.6283   98.9593  -42.6213 N   0  3  0  0  0  0  0  0  0  0  0  0
   90.2723  101.9434  -44.2145 O   0  0  0  0  0  0  0  0  0  0  0  0
   86.0975   88.4125  -48.8996 H   0  0  0  0  0  0  0  0  0  0  0  0
   87.3884   90.1285  -50.1417 H   0  0  0  0  0  0  0  0  0  0  0  0
   87.2175   87.0252  -47.1749 H   0  0  0  0  0  0  0  0  0  0  0  0
   91.2648   95.6094  -40.2157 H   0  0  0  0  0  0  0  0  0  0  0  0
   91.4030   93.2912  -41.0776 H   0  0  0  0  0  0  0  0  0  0  0  0
   89.7915   90.4584  -49.6683 H   0  0  0  0  0  0  0  0  0  0  0  0
   89.6207   87.3468  -46.6911 H   0  0  0  0  0  0  0  0  0  0  0  0
   91.6257   95.0074  -46.2890 H   0  0  0  0  0  0  0  0  0  0  0  0
   91.4298   97.1770  -44.2273 H   0  0  0  0  0  0  0  0  0  0  0  0
   93.3003  100.8510  -43.2224 H   0  0  0  0  0  0  0  0  0  0  0  0
   92.4675  102.2655  -42.5542 H   0  0  0  0  0  0  0  0  0  0  0  0
   89.8684  101.6528  -41.4867 H   0  0  0  0  0  0  0  0  0  0  0  0
   89.4369   99.9405  -41.6373 H   0  0  0  0  0  0  0  0  0  0  0  0
   92.1631  102.2204  -45.0075 H   0  0  0  0  0  0  0  0  0  0  0  0
   91.5843  100.5510  -44.9419 H   0  0  0  0  0  0  0  0  0  0  0  0
   89.4877  100.0575  -44.0813 H   0  0  0  0  0  0  0  0  0  0  0  0
   88.4345  101.3429  -43.4776 H   0  0  0  0  0  0  0  0  0  0  0  0
   91.9130  100.3696  -41.1174 H   0  0  0  0  0  0  0  0  0  0  0  0
   93.7416   91.1512  -43.5110 H   0  0  0  0  0  0  0  0  0  0  0  0
   92.9402   90.0763  -42.3511 H   0  0  0  0  0  0  0  0  0  0  0  0
   93.2296   91.7757  -41.9372 H   0  0  0  0  0  0  0  0  0  0  0  0
   92.9611   90.0914  -48.4407 H   0  0  0  0  0  0  0  0  0  0  0  0
   91.4818   90.7425  -49.1620 H   0  0  0  0  0  0  0  0  0  0  0  0
   91.9302   98.0538  -40.7668 H   0  0  0  0  0  0  0  0  0  0  0  0
   90.2418   98.1580  -41.2849 H   0  0  0  0  0  0  0  0  0  0  0  0
   90.8215   91.3952  -42.5649 H   0  0  0  0  0  0  0  0  0  0  0  0
   91.3246   90.7521  -44.1285 H   0  0  0  0  0  0  0  0  0  0  0  0
   91.7305   88.3923  -47.4319 H   0  0  0  0  0  0  0  0  0  0  0  0
   92.5971   98.7956  -42.9307 H   0  0  0  0  0  0  0  0  0  0  0  0
   91.0442   98.8398  -43.4608 H   0  0  0  0  0  0  0  0  0  0  0  0
  1  2  3  0  0  0  0
  1 12  1  0  0  0  0
  2 23  1  0  0  0  0
  3  4  1  0  0  0  0
  3  5  2  0  0  0  0
  4  8  2  0  0  0  0
  5  9  1  0  0  0  0
  6  7  2  0  0  0  0
  6 14  1  0  0  0  0
  7 15  1  0  0  0  0
  8 16  1  0  0  0  0
  9 16  2  0  0  0  0
 10 12  2  0  0  0  0
 10 13  1  0  0  0  0
 11 13  1  0  0  0  0
 11 14  2  0  0  0  0
 12 26  1  0  0  0  0
 13 15  2  0  0  0  0
 14 24  1  0  0  0  0
 15 26  1  0  0  0  0
 16 27  1  0  0  0  0
 17 19  1  0  0  0  0
 17 21  1  0  0  0  0
 18 20  1  0  0  0  0
 18 21  1  0  0  0  0
 19 29  1  0  0  0  0
 20 29  1  0  0  0  0
 21 28  1  0  0  0  0
 22 25  1  0  0  0  0
 23 27  1  0  0  0  0
 24 28  1  0  0  0  0
 25 26  1  0  0  0  0
  3 30  1  0  0  0  0
  4 31  1  0  0  0  0
  5 32  1  0  0  0  0
  6 33  1  0  0  0  0
  7 34  1  0  0  0  0
  8 35  1  0  0  0  0
  9 36  1  0  0  0  0
 10 37  1  0  0  0  0
 11 38  1  0  0  0  0
 17 39  1  0  0  0  0
 17 40  1  0  0  0  0
 18 41  1  0  0  0  0
 18 42  1  0  0  0  0
 19 43  1  0  0  0  0
 19 44  1  0  0  0  0
 20 45  1  0  0  0  0
 20 46  1  0  0  0  0
 21 47  1  0  0  0  0
 22 48  1  0  0  0  0
 22 49  1  0  0  0  0
 22 50  1  0  0  0  0
 23 51  1  0  0  0  0
 23 52  1  0  0  0  0
 24 53  1  0  0  0  0
 24 54  1  0  0  0  0
 25 55  1  0  0  0  0
 25 56  1  0  0  0  0
 27 57  1  0  0  0  0
 28 58  1  0  0  0  0
 28 59  1  0  0  0  0
M  CHG  1  28   1
M  END
> <HYBRID receptor title>
9S9P-CLEAN(A) > A1JMR(A-402)

> <HYBRID receptor filename>
../9S9P-CLEAN_A__DU__A1JMR_A-402.oedu

> <HYBRID Chemgauss4 score>
-7.208042

> <HYBRID receptor title>
9S9P-CLEAN(A) > A1JMR(A-402)

> <HYBRID receptor filename>
../9S9P-CLEAN_A__DU__A1JMR_A-402.oedu

> <Dock Type>
Hybrid

$$$$
Vu2025_04_1
  -OEChem-07272613503D

 61 64  0     0  0  0  0  0  0999 V2000
   91.6039   92.2801  -46.7079 C   0  0  0  0  0  0  0  0  0  0  0  0
   91.6648   91.4775  -47.5999 C   0  0  0  0  0  0  0  0  0  0  0  0
   91.5471   95.5928  -41.7089 C   0  0  0  0  0  0  0  0  0  0  0  0
   91.7863   94.3080  -42.2036 C   0  0  0  0  0  0  0  0  0  0  0  0
   89.2648   89.1331  -49.3707 C   0  0  0  0  0  0  0  0  0  0  0  0
   88.1843   88.4107  -49.8645 C   0  0  0  0  0  0  0  0  0  0  0  0
   91.1907   94.5584  -45.7577 C   0  0  0  0  0  0  0  0  0  0  0  0
   91.0137   96.4128  -43.9315 C   0  0  0  0  0  0  0  0  0  0  0  0
   90.1862   87.0977  -48.5550 C   0  0  0  0  0  0  0  0  0  0  0  0
   91.5307   93.2296  -45.6516 C   0  0  0  0  0  0  0  0  0  0  0  0
   91.2488   95.1250  -44.4535 C   0  0  0  0  0  0  0  0  0  0  0  0
   91.1668   96.6301  -42.5576 C   0  0  0  0  0  0  0  0  0  0  0  0
   91.6292   94.1045  -43.5795 C   0  0  0  0  0  0  0  0  0  0  0  0
   90.2891   88.4720  -48.7022 C   0  0  0  0  0  0  0  0  0  0  0  0
   88.1753   87.0396  -49.6655 C   0  0  0  0  0  0  0  0  0  0  0  0
   92.7652  101.2982  -42.3858 C   0  0  0  0  0  0  0  0  0  0  0  0
   90.2970  100.9659  -42.7569 C   0  0  0  0  0  0  0  0  0  0  0  0
   92.8674  101.6436  -43.8681 C   0  0  0  0  0  0  0  0  0  0  0  0
   90.5430  101.3310  -44.2172 C   0  0  0  0  0  0  0  0  0  0  0  0
   91.5535  100.4198  -42.0804 C   0  0  0  0  0  0  0  0  0  0  0  0
   87.0306   86.2330  -50.1814 C   0  0  0  0  0  0  0  0  0  0  0  0
   93.6765   91.6053  -43.5092 C   0  0  0  0  0  0  0  0  0  0  0  0
   91.7405   90.5011  -48.6876 C   0  0  0  0  0  0  0  0  0  0  0  0
   90.9207   97.9991  -41.9950 C   0  0  0  0  0  0  0  0  0  0  0  0
   92.1885   91.6746  -43.8058 C   0  0  0  0  0  0  0  0  0  0  0  0
   89.1519   86.3624  -49.0212 N   0  0  0  0  0  0  0  0  0  0  0  0
   91.7937   92.9649  -44.3340 N   0  0  0  0  0  0  0  0  0  0  0  0
   91.3633   89.1563  -48.2060 N   0  0  0  0  0  0  0  0  0  0  0  0
   91.8141   99.0373  -42.5762 N   0  3  0  0  0  0  0  0  0  0  0  0
   91.6507  102.2234  -44.3380 O   0  0  0  0  0  0  0  0  0  0  0  0
   91.6623   95.7753  -40.6428 H   0  0  0  0  0  0  0  0  0  0  0  0
   92.0823   93.5042  -41.5381 H   0  0  0  0  0  0  0  0  0  0  0  0
   89.2978   90.2102  -49.5110 H   0  0  0  0  0  0  0  0  0  0  0  0
   87.3783   88.9151  -50.3870 H   0  0  0  0  0  0  0  0  0  0  0  0
   90.9269   95.0748  -46.6716 H   0  0  0  0  0  0  0  0  0  0  0  0
   90.7181   97.2247  -44.5905 H   0  0  0  0  0  0  0  0  0  0  0  0
   90.9544   86.5262  -48.0430 H   0  0  0  0  0  0  0  0  0  0  0  0
   93.6881  100.7648  -42.0867 H   0  0  0  0  0  0  0  0  0  0  0  0
   92.7325  102.2269  -41.7867 H   0  0  0  0  0  0  0  0  0  0  0  0
   89.9135  101.8467  -42.2099 H   0  0  0  0  0  0  0  0  0  0  0  0
   89.4987  100.2001  -42.7173 H   0  0  0  0  0  0  0  0  0  0  0  0
   93.6980  102.3331  -44.0604 H   0  0  0  0  0  0  0  0  0  0  0  0
   93.0508  100.7345  -44.4498 H   0  0  0  0  0  0  0  0  0  0  0  0
   90.7771  100.4287  -44.7916 H   0  0  0  0  0  0  0  0  0  0  0  0
   89.6549  101.7893  -44.6687 H   0  0  0  0  0  0  0  0  0  0  0  0
   91.4024  100.3345  -41.0016 H   0  0  0  0  0  0  0  0  0  0  0  0
   87.2179   85.8859  -51.2057 H   0  0  0  0  0  0  0  0  0  0  0  0
   86.1074   86.8261  -50.2098 H   0  0  0  0  0  0  0  0  0  0  0  0
   86.8627   85.3577  -49.5425 H   0  0  0  0  0  0  0  0  0  0  0  0
   94.2692   91.7910  -44.4110 H   0  0  0  0  0  0  0  0  0  0  0  0
   93.9413   90.6152  -43.1251 H   0  0  0  0  0  0  0  0  0  0  0  0
   93.9655   92.3500  -42.7604 H   0  0  0  0  0  0  0  0  0  0  0  0
   92.7544   90.4527  -49.0959 H   0  0  0  0  0  0  0  0  0  0  0  0
   91.0628   90.7804  -49.5006 H   0  0  0  0  0  0  0  0  0  0  0  0
   91.0813   98.0162  -40.9117 H   0  0  0  0  0  0  0  0  0  0  0  0
   89.8927   98.3264  -42.1849 H   0  0  0  0  0  0  0  0  0  0  0  0
   91.6043   91.4877  -42.8983 H   0  0  0  0  0  0  0  0  0  0  0  0
   91.9052   90.9089  -44.5373 H   0  0  0  0  0  0  0  0  0  0  0  0
   91.9383   88.7633  -47.4904 H   0  0  0  0  0  0  0  0  0  0  0  0
   92.7934   98.7853  -42.3794 H   0  0  0  0  0  0  0  0  0  0  0  0
   91.7236   99.0219  -43.6016 H   0  0  0  0  0  0  0  0  0  0  0  0
  1  2  3  0  0  0  0
  1 10  1  0  0  0  0
  2 23  1  0  0  0  0
  3  4  2  0  0  0  0
  3 12  1  0  0  0  0
  4 13  1  0  0  0  0
  5  6  2  0  0  0  0
  5 14  1  0  0  0  0
  6 15  1  0  0  0  0
  7 10  2  0  0  0  0
  7 11  1  0  0  0  0
  8 11  1  0  0  0  0
  8 12  2  0  0  0  0
  9 14  2  0  0  0  0
  9 26  1  0  0  0  0
 10 27  1  0  0  0  0
 11 13  2  0  0  0  0
 12 24  1  0  0  0  0
 13 27  1  0  0  0  0
 14 28  1  0  0  0  0
 15 21  1  0  0  0  0
 15 26  2  0  0  0  0
 16 18  1  0  0  0  0
 16 20  1  0  0  0  0
 17 19  1  0  0  0  0
 17 20  1  0  0  0  0
 18 30  1  0  0  0  0
 19 30  1  0  0  0  0
 20 29  1  0  0  0  0
 22 25  1  0  0  0  0
 23 28  1  0  0  0  0
 24 29  1  0  0  0  0
 25 27  1  0  0  0  0
  3 31  1  0  0  0  0
  4 32  1  0  0  0  0
  5 33  1  0  0  0  0
  6 34  1  0  0  0  0
  7 35  1  0  0  0  0
  8 36  1  0  0  0  0
  9 37  1  0  0  0  0
 16 38  1  0  0  0  0
 16 39  1  0  0  0  0
 17 40  1  0  0  0  0
 17 41  1  0  0  0  0
 18 42  1  0  0  0  0
 18 43  1  0  0  0  0
 19 44  1  0  0  0  0
 19 45  1  0  0  0  0
 20 46  1  0  0  0  0
 21 47  1  0  0  0  0
 21 48  1  0  0  0  0
 21 49  1  0  0  0  0
 22 50  1  0  0  0  0
 22 51  1  0  0  0  0
 22 52  1  0  0  0  0
 23 53  1  0  0  0  0
 23 54  1  0  0  0  0
 24 55  1  0  0  0  0
 24 56  1  0  0  0  0
 25 57  1  0  0  0  0
 25 58  1  0  0  0  0
 28 59  1  0  0  0  0
 29 60  1  0  0  0  0
 29 61  1  0  0  0  0
M  CHG  1  29   1
M  END
> <HYBRID receptor title>
9S9P-CLEAN(A) > A1JMR(A-402)

> <HYBRID receptor filename>
../9S9P-CLEAN_A__DU__A1JMR_A-402.oedu

> <HYBRID Chemgauss4 score>
-7.068694

> <HYBRID receptor title>
9S9P-CLEAN(A) > A1JMR(A-402)

> <HYBRID receptor filename>
../9S9P-CLEAN_A__DU__A1JMR_A-402.oedu

> <Dock Type>
Hybrid

$$$$
Vu2025_01_1
  -OEChem-07272613503D

 48 50  0     0  0  0  0  0  0999 V2000
   91.8629   92.4916  -46.0208 C   0  0  0  0  0  0  0  0  0  0  0  0
   92.1370   91.5071  -46.6525 C   0  0  0  0  0  0  0  0  0  0  0  0
   89.2466   90.4630  -51.3761 C   0  0  0  0  0  0  0  0  0  0  0  0
   90.1214   91.3976  -50.8221 C   0  0  0  0  0  0  0  0  0  0  0  0
   89.0432   89.2375  -50.7420 C   0  0  0  0  0  0  0  0  0  0  0  0
   89.8909   96.8725  -42.4310 C   0  0  0  0  0  0  0  0  0  0  0  0
   89.7359   95.5193  -42.7431 C   0  0  0  0  0  0  0  0  0  0  0  0
   90.7925   91.1069  -49.6342 C   0  0  0  0  0  0  0  0  0  0  0  0
   89.7143   88.9468  -49.5541 C   0  0  0  0  0  0  0  0  0  0  0  0
   92.0914   94.9088  -45.4129 C   0  0  0  0  0  0  0  0  0  0  0  0
   91.6072   97.1279  -44.1299 C   0  0  0  0  0  0  0  0  0  0  0  0
   91.5374   93.6573  -45.2738 C   0  0  0  0  0  0  0  0  0  0  0  0
   91.4681   95.7655  -44.4627 C   0  0  0  0  0  0  0  0  0  0  0  0
   90.8114   97.6659  -43.1123 C   0  0  0  0  0  0  0  0  0  0  0  0
   90.5378   94.9942  -43.7630 C   0  0  0  0  0  0  0  0  0  0  0  0
   90.5891   89.8813  -49.0001 C   0  0  0  0  0  0  0  0  0  0  0  0
   90.2965   92.0244  -42.5120 C   0  0  0  0  0  0  0  0  0  0  0  0
   91.8921  100.7569  -41.1276 C   0  0  0  0  0  0  0  0  0  0  0  0
   92.4731   90.3078  -47.4212 C   0  0  0  0  0  0  0  0  0  0  0  0
   90.9550   99.1075  -42.7525 C   0  0  0  0  0  0  0  0  0  0  0  0
   89.7930   92.6046  -43.8224 C   0  0  0  0  0  0  0  0  0  0  0  0
   90.6013   93.7183  -44.2761 N   0  0  0  0  0  0  0  0  0  0  0  0
   91.2468   89.5959  -47.8363 N   0  0  0  0  0  0  0  0  0  0  0  0
   91.6883   99.3263  -41.4759 N   0  3  0  0  0  0  0  0  0  0  0  0
   88.7249   90.6891  -52.3014 H   0  0  0  0  0  0  0  0  0  0  0  0
   90.2795   92.3522  -51.3157 H   0  0  0  0  0  0  0  0  0  0  0  0
   88.3620   88.5098  -51.1734 H   0  0  0  0  0  0  0  0  0  0  0  0
   89.2783   97.3034  -41.6422 H   0  0  0  0  0  0  0  0  0  0  0  0
   89.0177   94.9063  -42.2092 H   0  0  0  0  0  0  0  0  0  0  0  0
   91.4725   91.8424  -49.2123 H   0  0  0  0  0  0  0  0  0  0  0  0
   89.5484   87.9887  -49.0678 H   0  0  0  0  0  0  0  0  0  0  0  0
   92.8623   95.1863  -46.1200 H   0  0  0  0  0  0  0  0  0  0  0  0
   92.3250   97.7496  -44.6582 H   0  0  0  0  0  0  0  0  0  0  0  0
   91.3282   91.6698  -42.6064 H   0  0  0  0  0  0  0  0  0  0  0  0
   89.6721   91.1790  -42.2064 H   0  0  0  0  0  0  0  0  0  0  0  0
   90.2722   92.7727  -41.7131 H   0  0  0  0  0  0  0  0  0  0  0  0
   92.4333  101.2267  -41.9506 H   0  0  0  0  0  0  0  0  0  0  0  0
   92.4709  100.7967  -40.2029 H   0  0  0  0  0  0  0  0  0  0  0  0
   90.9084  101.2110  -40.9951 H   0  0  0  0  0  0  0  0  0  0  0  0
   93.0872   89.6250  -46.8264 H   0  0  0  0  0  0  0  0  0  0  0  0
   93.0392   90.5748  -48.3192 H   0  0  0  0  0  0  0  0  0  0  0  0
   89.9771   99.5929  -42.6344 H   0  0  0  0  0  0  0  0  0  0  0  0
   91.5049   99.6634  -43.5239 H   0  0  0  0  0  0  0  0  0  0  0  0
   88.7609   92.9564  -43.7181 H   0  0  0  0  0  0  0  0  0  0  0  0
   89.7974   91.8412  -44.6090 H   0  0  0  0  0  0  0  0  0  0  0  0
   90.9151   88.8851  -47.2184 H   0  0  0  0  0  0  0  0  0  0  0  0
   91.1785   98.8617  -40.7123 H   0  0  0  0  0  0  0  0  0  0  0  0
   92.6022   98.8578  -41.5293 H   0  0  0  0  0  0  0  0  0  0  0  0
  1  2  3  0  0  0  0
  1 12  1  0  0  0  0
  2 19  1  0  0  0  0
  3  4  1  0  0  0  0
  3  5  2  0  0  0  0
  4  8  2  0  0  0  0
  5  9  1  0  0  0  0
  6  7  2  0  0  0  0
  6 14  1  0  0  0  0
  7 15  1  0  0  0  0
  8 16  1  0  0  0  0
  9 16  2  0  0  0  0
 10 12  2  0  0  0  0
 10 13  1  0  0  0  0
 11 13  1  0  0  0  0
 11 14  2  0  0  0  0
 12 22  1  0  0  0  0
 13 15  2  0  0  0  0
 14 20  1  0  0  0  0
 15 22  1  0  0  0  0
 16 23  1  0  0  0  0
 17 21  1  0  0  0  0
 18 24  1  0  0  0  0
 19 23  1  0  0  0  0
 20 24  1  0  0  0  0
 21 22  1  0  0  0  0
  3 25  1  0  0  0  0
  4 26  1  0  0  0  0
  5 27  1  0  0  0  0
  6 28  1  0  0  0  0
  7 29  1  0  0  0  0
  8 30  1  0  0  0  0
  9 31  1  0  0  0  0
 10 32  1  0  0  0  0
 11 33  1  0  0  0  0
 17 34  1  0  0  0  0
 17 35  1  0  0  0  0
 17 36  1  0  0  0  0
 18 37  1  0  0  0  0
 18 38  1  0  0  0  0
 18 39  1  0  0  0  0
 19 40  1  0  0  0  0
 19 41  1  0  0  0  0
 20 42  1  0  0  0  0
 20 43  1  0  0  0  0
 21 44  1  0  0  0  0
 21 45  1  0  0  0  0
 23 46  1  0  0  0  0
 24 47  1  0  0  0  0
 24 48  1  0  0  0  0
M  CHG  1  24   1
M  END
> <HYBRID receptor title>
9S9P-CLEAN(A) > A1JMR(A-402)

> <HYBRID receptor filename>
../9S9P-CLEAN_A__DU__A1JMR_A-402.oedu

> <HYBRID Chemgauss4 score>
-6.659902

> <HYBRID receptor title>
9S9P-CLEAN(A) > A1JMR(A-402)

> <HYBRID receptor filename>
../9S9P-CLEAN_A__DU__A1JMR_A-402.oedu

> <Dock Type>
Hybrid

$$$$
Vu2025_05_1
  -OEChem-07272613503D

 59 61  0     0  0  0  0  0  0999 V2000
   92.0879   92.4367  -45.9526 C   0  0  0  0  0  0  0  0  0  0  0  0
   92.3985   91.4369  -46.5421 C   0  0  0  0  0  0  0  0  0  0  0  0
   89.8453   96.9303  -42.6745 C   0  0  0  0  0  0  0  0  0  0  0  0
   89.6627   95.5876  -43.0158 C   0  0  0  0  0  0  0  0  0  0  0  0
   91.2311   91.3344  -49.4562 C   0  0  0  0  0  0  0  0  0  0  0  0
   90.3849   91.9688  -50.3586 C   0  0  0  0  0  0  0  0  0  0  0  0
   92.3586   94.8379  -45.3004 C   0  0  0  0  0  0  0  0  0  0  0  0
   91.8120   97.0835  -44.0906 C   0  0  0  0  0  0  0  0  0  0  0  0
   89.4870   89.7859  -48.9892 C   0  0  0  0  0  0  0  0  0  0  0  0
   91.7194   93.6205  -45.2558 C   0  0  0  0  0  0  0  0  0  0  0  0
   91.6478   95.7308  -44.4501 C   0  0  0  0  0  0  0  0  0  0  0  0
   90.9025   97.6683  -43.2023 C   0  0  0  0  0  0  0  0  0  0  0  0
   90.5794   95.0154  -43.9055 C   0  0  0  0  0  0  0  0  0  0  0  0
   90.7817   90.2214  -48.7542 C   0  0  0  0  0  0  0  0  0  0  0  0
   89.1084   91.4555  -50.5221 C   0  0  0  0  0  0  0  0  0  0  0  0
   89.9814   92.0667  -42.7263 C   0  0  0  0  0  0  0  0  0  0  0  0
   88.8438   93.3382  -52.1740 C   0  0  0  0  0  0  0  0  0  0  0  0
   86.8893   92.6229  -50.7588 C   0  0  0  0  0  0  0  0  0  0  0  0
   87.6621   91.2028  -52.6477 C   0  0  0  0  0  0  0  0  0  0  0  0
   91.8429  100.6958  -41.0550 C   0  0  0  0  0  0  0  0  0  0  0  0
   92.7787   90.2188  -47.2589 C   0  0  0  0  0  0  0  0  0  0  0  0
   91.0717   99.0999  -42.8149 C   0  0  0  0  0  0  0  0  0  0  0  0
   89.7172   92.6724  -44.0939 C   0  0  0  0  0  0  0  0  0  0  0  0
   88.1732   92.1121  -51.4819 C   0  0  0  0  0  0  0  0  0  0  0  0
   88.6363   90.3766  -49.8582 N   0  0  0  0  0  0  0  0  0  0  0  0
   90.6474   93.7370  -44.4117 N   0  0  0  0  0  0  0  0  0  0  0  0
   91.5914   89.5778  -47.8606 N   0  0  0  0  0  0  0  0  0  0  0  0
   91.6132   99.2786  -41.4401 N   0  3  0  0  0  0  0  0  0  0  0  0
   89.1453   97.3971  -41.9851 H   0  0  0  0  0  0  0  0  0  0  0  0
   88.8379   95.0178  -42.6016 H   0  0  0  0  0  0  0  0  0  0  0  0
   92.2375   91.7160  -49.3066 H   0  0  0  0  0  0  0  0  0  0  0  0
   90.7234   92.8387  -50.9117 H   0  0  0  0  0  0  0  0  0  0  0  0
   93.2427   95.0694  -45.8801 H   0  0  0  0  0  0  0  0  0  0  0  0
   92.6361   97.6620  -44.4993 H   0  0  0  0  0  0  0  0  0  0  0  0
   89.0798   88.9224  -48.4721 H   0  0  0  0  0  0  0  0  0  0  0  0
   90.9935   91.6533  -42.6651 H   0  0  0  0  0  0  0  0  0  0  0  0
   89.2706   91.2591  -42.5251 H   0  0  0  0  0  0  0  0  0  0  0  0
   89.8785   92.8166  -41.9352 H   0  0  0  0  0  0  0  0  0  0  0  0
   88.1443   93.8087  -52.8752 H   0  0  0  0  0  0  0  0  0  0  0  0
   89.1647   94.1050  -51.4586 H   0  0  0  0  0  0  0  0  0  0  0  0
   89.7315   93.0420  -52.7442 H   0  0  0  0  0  0  0  0  0  0  0  0
   86.1843   93.1103  -51.4428 H   0  0  0  0  0  0  0  0  0  0  0  0
   86.3652   91.7874  -50.2799 H   0  0  0  0  0  0  0  0  0  0  0  0
   87.1312   93.3507  -49.9777 H   0  0  0  0  0  0  0  0  0  0  0  0
   86.9793   91.7295  -53.3244 H   0  0  0  0  0  0  0  0  0  0  0  0
   87.1201   90.3341  -52.2555 H   0  0  0  0  0  0  0  0  0  0  0  0
   88.4992   90.8380  -53.2549 H   0  0  0  0  0  0  0  0  0  0  0  0
   92.5289  101.1322  -41.7828 H   0  0  0  0  0  0  0  0  0  0  0  0
   92.2754  100.7040  -40.0527 H   0  0  0  0  0  0  0  0  0  0  0  0
   90.8780  101.2059  -41.0706 H   0  0  0  0  0  0  0  0  0  0  0  0
   93.2551   89.5031  -46.5824 H   0  0  0  0  0  0  0  0  0  0  0  0
   93.4893   90.4512  -48.0585 H   0  0  0  0  0  0  0  0  0  0  0  0
   90.1165   99.6408  -42.8436 H   0  0  0  0  0  0  0  0  0  0  0  0
   91.7633   99.6218  -43.4898 H   0  0  0  0  0  0  0  0  0  0  0  0
   88.7030   93.0830  -44.1455 H   0  0  0  0  0  0  0  0  0  0  0  0
   89.7978   91.9086  -44.8760 H   0  0  0  0  0  0  0  0  0  0  0  0
   91.4044   88.6376  -47.5808 H   0  0  0  0  0  0  0  0  0  0  0  0
   90.9675   98.8455  -40.7662 H   0  0  0  0  0  0  0  0  0  0  0  0
   92.4964   98.7583  -41.3571 H   0  0  0  0  0  0  0  0  0  0  0  0
  1  2  3  0  0  0  0
  1 10  1  0  0  0  0
  2 21  1  0  0  0  0
  3  4  2  0  0  0  0
  3 12  1  0  0  0  0
  4 13  1  0  0  0  0
  5  6  2  0  0  0  0
  5 14  1  0  0  0  0
  6 15  1  0  0  0  0
  7 10  2  0  0  0  0
  7 11  1  0  0  0  0
  8 11  1  0  0  0  0
  8 12  2  0  0  0  0
  9 14  2  0  0  0  0
  9 25  1  0  0  0  0
 10 26  1  0  0  0  0
 11 13  2  0  0  0  0
 12 22  1  0  0  0  0
 13 26  1  0  0  0  0
 14 27  1  0  0  0  0
 15 24  1  0  0  0  0
 15 25  2  0  0  0  0
 16 23  1  0  0  0  0
 17 24  1  0  0  0  0
 18 24  1  0  0  0  0
 19 24  1  0  0  0  0
 20 28  1  0  0  0  0
 21 27  1  0  0  0  0
 22 28  1  0  0  0  0
 23 26  1  0  0  0  0
  3 29  1  0  0  0  0
  4 30  1  0  0  0  0
  5 31  1  0  0  0  0
  6 32  1  0  0  0  0
  7 33  1  0  0  0  0
  8 34  1  0  0  0  0
  9 35  1  0  0  0  0
 16 36  1  0  0  0  0
 16 37  1  0  0  0  0
 16 38  1  0  0  0  0
 17 39  1  0  0  0  0
 17 40  1  0  0  0  0
 17 41  1  0  0  0  0
 18 42  1  0  0  0  0
 18 43  1  0  0  0  0
 18 44  1  0  0  0  0
 19 45  1  0  0  0  0
 19 46  1  0  0  0  0
 19 47  1  0  0  0  0
 20 48  1  0  0  0  0
 20 49  1  0  0  0  0
 20 50  1  0  0  0  0
 21 51  1  0  0  0  0
 21 52  1  0  0  0  0
 22 53  1  0  0  0  0
 22 54  1  0  0  0  0
 23 55  1  0  0  0  0
 23 56  1  0  0  0  0
 27 57  1  0  0  0  0
 28 58  1  0  0  0  0
 28 59  1  0  0  0  0
M  CHG  1  28   1
M  END
> <HYBRID receptor title>
9S9P-CLEAN(A) > A1JMR(A-402)

> <HYBRID receptor filename>
../9S9P-CLEAN_A__DU__A1JMR_A-402.oedu

> <HYBRID Chemgauss4 score>
-5.631823

> <HYBRID receptor title>
9S9P-CLEAN(A) > A1JMR(A-402)

> <HYBRID receptor filename>
../9S9P-CLEAN_A__DU__A1JMR_A-402.oedu

> <Dock Type>
Hybrid

$$$$
Vu2025_06_1
  -OEChem-07272613503D

 68 71  0     0  0  0  0  0  0999 V2000
   91.7262   91.5273  -46.6520 C   0  0  0  0  0  0  0  0  0  0  0  0
   91.7957   90.7125  -47.5323 C   0  0  0  0  0  0  0  0  0  0  0  0
   86.1407   89.9612  -52.7176 C   0  0  0  0  0  0  0  0  0  0  0  0
   90.9685   94.9325  -41.7737 C   0  0  0  0  0  0  0  0  0  0  0  0
   90.7489   93.6565  -42.2993 C   0  0  0  0  0  0  0  0  0  0  0  0
   88.6471   88.0571  -49.5048 C   0  0  0  0  0  0  0  0  0  0  0  0
   87.4627   88.3583  -50.1678 C   0  0  0  0  0  0  0  0  0  0  0  0
   92.0897   93.7922  -45.6509 C   0  0  0  0  0  0  0  0  0  0  0  0
   92.0119   95.6678  -43.8395 C   0  0  0  0  0  0  0  0  0  0  0  0
   89.2263   90.3620  -49.6008 C   0  0  0  0  0  0  0  0  0  0  0  0
   91.6427   92.4918  -45.6102 C   0  0  0  0  0  0  0  0  0  0  0  0
   91.8006   94.3884  -44.3914 C   0  0  0  0  0  0  0  0  0  0  0  0
   91.5900   95.9237  -42.5300 C   0  0  0  0  0  0  0  0  0  0  0  0
   91.1755   93.4142  -43.6102 C   0  0  0  0  0  0  0  0  0  0  0  0
   89.5513   89.0720  -49.2120 C   0  0  0  0  0  0  0  0  0  0  0  0
   87.2309   89.6798  -50.5138 C   0  0  0  0  0  0  0  0  0  0  0  0
   89.7386   99.2719  -44.4128 C   0  0  0  0  0  0  0  0  0  0  0  0
   92.2377   99.3998  -44.1875 C   0  0  0  0  0  0  0  0  0  0  0  0
   89.9183   99.6870  -45.8691 C   0  0  0  0  0  0  0  0  0  0  0  0
   92.2786   99.8080  -45.6564 C   0  0  0  0  0  0  0  0  0  0  0  0
   90.9934   98.5607  -43.9179 C   0  0  0  0  0  0  0  0  0  0  0  0
   91.4338   90.2494  -43.0099 C   0  0  0  0  0  0  0  0  0  0  0  0
   84.7327   89.1399  -50.9033 C   0  0  0  0  0  0  0  0  0  0  0  0
   85.5317   91.4955  -50.8836 C   0  0  0  0  0  0  0  0  0  0  0  0
   91.8825   89.7204  -48.6048 C   0  0  0  0  0  0  0  0  0  0  0  0
   91.8139   97.2827  -41.9348 C   0  0  0  0  0  0  0  0  0  0  0  0
   90.5082   91.0228  -43.9331 C   0  0  0  0  0  0  0  0  0  0  0  0
   85.9703   90.0390  -51.2271 C   0  0  0  0  0  0  0  0  0  0  0  0
   86.2998   89.8921  -53.8649 N   0  0  0  0  0  0  0  0  0  0  0  0
   88.0853   90.6927  -50.2463 N   0  0  0  0  0  0  0  0  0  0  0  0
   91.0929   92.2727  -44.3753 N   0  0  0  0  0  0  0  0  0  0  0  0
   90.7234   88.8053  -48.5614 N   0  0  0  0  0  0  0  0  0  0  0  0
   90.8746   98.3106  -42.4590 N   0  3  0  0  0  0  0  0  0  0  0  0
   91.0836  100.4984  -46.0241 O   0  0  0  0  0  0  0  0  0  0  0  0
   90.6452   95.1448  -40.7571 H   0  0  0  0  0  0  0  0  0  0  0  0
   90.2647   92.8885  -41.7058 H   0  0  0  0  0  0  0  0  0  0  0  0
   88.8560   87.0288  -49.2224 H   0  0  0  0  0  0  0  0  0  0  0  0
   86.7496   87.5752  -50.4029 H   0  0  0  0  0  0  0  0  0  0  0  0
   92.5733   94.2708  -46.4926 H   0  0  0  0  0  0  0  0  0  0  0  0
   92.4974   96.4432  -44.4259 H   0  0  0  0  0  0  0  0  0  0  0  0
   89.8916   91.1963  -49.3996 H   0  0  0  0  0  0  0  0  0  0  0  0
   89.5654  100.1732  -43.8106 H   0  0  0  0  0  0  0  0  0  0  0  0
   88.8584   98.6274  -44.3120 H   0  0  0  0  0  0  0  0  0  0  0  0
   93.1465   98.8467  -43.9257 H   0  0  0  0  0  0  0  0  0  0  0  0
   92.2087  100.3084  -43.5722 H   0  0  0  0  0  0  0  0  0  0  0  0
   89.9930   98.8131  -46.5269 H   0  0  0  0  0  0  0  0  0  0  0  0
   89.0560  100.2757  -46.1976 H   0  0  0  0  0  0  0  0  0  0  0  0
   93.1216  100.4839  -45.8314 H   0  0  0  0  0  0  0  0  0  0  0  0
   92.4113   98.9369  -46.3089 H   0  0  0  0  0  0  0  0  0  0  0  0
   91.0867   97.5766  -44.3915 H   0  0  0  0  0  0  0  0  0  0  0  0
   92.3824   90.0163  -43.5047 H   0  0  0  0  0  0  0  0  0  0  0  0
   90.9670   89.3072  -42.7066 H   0  0  0  0  0  0  0  0  0  0  0  0
   91.6611   90.8240  -42.1060 H   0  0  0  0  0  0  0  0  0  0  0  0
   84.4989   89.1110  -49.8315 H   0  0  0  0  0  0  0  0  0  0  0  0
   83.8343   89.5105  -51.4117 H   0  0  0  0  0  0  0  0  0  0  0  0
   84.9040   88.1059  -51.2244 H   0  0  0  0  0  0  0  0  0  0  0  0
   85.3927   91.6069  -49.8013 H   0  0  0  0  0  0  0  0  0  0  0  0
   86.2844   92.2288  -51.1965 H   0  0  0  0  0  0  0  0  0  0  0  0
   84.5923   91.7829  -51.3723 H   0  0  0  0  0  0  0  0  0  0  0  0
   92.7974   89.1276  -48.5120 H   0  0  0  0  0  0  0  0  0  0  0  0
   91.8981   90.2134  -49.5821 H   0  0  0  0  0  0  0  0  0  0  0  0
   92.8261   97.6447  -42.1452 H   0  0  0  0  0  0  0  0  0  0  0  0
   91.6858   97.2648  -40.8470 H   0  0  0  0  0  0  0  0  0  0  0  0
   89.5627   91.2513  -43.4297 H   0  0  0  0  0  0  0  0  0  0  0  0
   90.2668   90.4293  -44.8225 H   0  0  0  0  0  0  0  0  0  0  0  0
   90.8372   87.9694  -48.0271 H   0  0  0  0  0  0  0  0  0  0  0  0
   89.9091   98.0247  -42.2414 H   0  0  0  0  0  0  0  0  0  0  0  0
   91.0248   99.1930  -41.9502 H   0  0  0  0  0  0  0  0  0  0  0  0
  1  2  3  0  0  0  0
  1 11  1  0  0  0  0
  2 25  1  0  0  0  0
  3 28  1  0  0  0  0
  3 29  3  0  0  0  0
  4  5  2  0  0  0  0
  4 13  1  0  0  0  0
  5 14  1  0  0  0  0
  6  7  2  0  0  0  0
  6 15  1  0  0  0  0
  7 16  1  0  0  0  0
  8 11  2  0  0  0  0
  8 12  1  0  0  0  0
  9 12  1  0  0  0  0
  9 13  2  0  0  0  0
 10 15  2  0  0  0  0
 10 30  1  0  0  0  0
 11 31  1  0  0  0  0
 12 14  2  0  0  0  0
 13 26  1  0  0  0  0
 14 31  1  0  0  0  0
 15 32  1  0  0  0  0
 16 28  1  0  0  0  0
 16 30  2  0  0  0  0
 17 19  1  0  0  0  0
 17 21  1  0  0  0  0
 18 20  1  0  0  0  0
 18 21  1  0  0  0  0
 19 34  1  0  0  0  0
 20 34  1  0  0  0  0
 21 33  1  0  0  0  0
 22 27  1  0  0  0  0
 23 28  1  0  0  0  0
 24 28  1  0  0  0  0
 25 32  1  0  0  0  0
 26 33  1  0  0  0  0
 27 31  1  0  0  0  0
  4 35  1  0  0  0  0
  5 36  1  0  0  0  0
  6 37  1  0  0  0  0
  7 38  1  0  0  0  0
  8 39  1  0  0  0  0
  9 40  1  0  0  0  0
 10 41  1  0  0  0  0
 17 42  1  0  0  0  0
 17 43  1  0  0  0  0
 18 44  1  0  0  0  0
 18 45  1  0  0  0  0
 19 46  1  0  0  0  0
 19 47  1  0  0  0  0
 20 48  1  0  0  0  0
 20 49  1  0  0  0  0
 21 50  1  0  0  0  0
 22 51  1  0  0  0  0
 22 52  1  0  0  0  0
 22 53  1  0  0  0  0
 23 54  1  0  0  0  0
 23 55  1  0  0  0  0
 23 56  1  0  0  0  0
 24 57  1  0  0  0  0
 24 58  1  0  0  0  0
 24 59  1  0  0  0  0
 25 60  1  0  0  0  0
 25 61  1  0  0  0  0
 26 62  1  0  0  0  0
 26 63  1  0  0  0  0
 27 64  1  0  0  0  0
 27 65  1  0  0  0  0
 32 66  1  0  0  0  0
 33 67  1  0  0  0  0
 33 68  1  0  0  0  0
M  CHG  1  33   1
M  END
> <HYBRID receptor title>
9S9P-CLEAN(A) > A1JMR(A-402)

> <HYBRID receptor filename>
../9S9P-CLEAN_A__DU__A1JMR_A-402.oedu

> <HYBRID Chemgauss4 score>
-4.806401

> <HYBRID receptor title>
9S9P-CLEAN(A) > A1JMR(A-402)

> <HYBRID receptor filename>
../9S9P-CLEAN_A__DU__A1JMR_A-402.oedu

> <Dock Type>
Hybrid

$$$$
Vu2025_07_1
  -OEChem-07272613503D

 68 71  0     0  0  0  0  0  0999 V2000
   92.8148   92.7185  -46.1509 C   0  0  0  0  0  0  0  0  0  0  0  0
   93.0789   91.8186  -46.9020 C   0  0  0  0  0  0  0  0  0  0  0  0
   86.7493   90.6326  -50.5172 C   0  0  0  0  0  0  0  0  0  0  0  0
   91.1015   96.5661  -41.8816 C   0  0  0  0  0  0  0  0  0  0  0  0
   91.0855   95.2193  -42.2535 C   0  0  0  0  0  0  0  0  0  0  0  0
   90.8367   90.9186  -49.1748 C   0  0  0  0  0  0  0  0  0  0  0  0
   89.7092   90.9318  -49.9882 C   0  0  0  0  0  0  0  0  0  0  0  0
   92.8088   95.1142  -45.4266 C   0  0  0  0  0  0  0  0  0  0  0  0
   92.3085   97.1698  -43.9004 C   0  0  0  0  0  0  0  0  0  0  0  0
   90.5005   88.5886  -48.8351 C   0  0  0  0  0  0  0  0  0  0  0  0
   92.5009   93.7835  -45.2622 C   0  0  0  0  0  0  0  0  0  0  0  0
   92.3043   95.8175  -44.2968 C   0  0  0  0  0  0  0  0  0  0  0  0
   91.7029   97.5277  -42.6906 C   0  0  0  0  0  0  0  0  0  0  0  0
   91.6945   94.8753  -43.4659 C   0  0  0  0  0  0  0  0  0  0  0  0
   91.2469   89.7290  -48.5834 C   0  0  0  0  0  0  0  0  0  0  0  0
   89.0316   89.7381  -50.1773 C   0  0  0  0  0  0  0  0  0  0  0  0
   88.0529   99.7149  -42.9672 C   0  0  0  0  0  0  0  0  0  0  0  0
   89.9988  100.6899  -44.2225 C   0  0  0  0  0  0  0  0  0  0  0  0
   87.2265   99.9125  -44.2335 C   0  0  0  0  0  0  0  0  0  0  0  0
   89.0642  100.8336  -45.4191 C   0  0  0  0  0  0  0  0  0  0  0  0
   89.5247   99.5483  -43.3295 C   0  0  0  0  0  0  0  0  0  0  0  0
   88.0399   90.1485  -52.5294 C   0  0  0  0  0  0  0  0  0  0  0  0
   87.2074   88.2819  -51.1115 C   0  0  0  0  0  0  0  0  0  0  0  0
   93.4028   90.7231  -47.8169 C   0  0  0  0  0  0  0  0  0  0  0  0
   91.7057   98.9652  -42.2608 C   0  0  0  0  0  0  0  0  0  0  0  0
   91.3303   92.3993  -43.5385 C   0  0  0  0  0  0  0  0  0  0  0  0
   87.8167   89.7158  -51.0435 C   0  0  0  0  0  0  0  0  0  0  0  0
   92.2058   91.8605  -42.4253 C   0  0  0  0  0  0  0  0  0  0  0  0
   85.9429   91.3487  -50.0891 N   0  0  0  0  0  0  0  0  0  0  0  0
   89.3997   88.5630  -49.6197 N   0  0  0  0  0  0  0  0  0  0  0  0
   91.8289   93.6488  -44.0766 N   0  0  0  0  0  0  0  0  0  0  0  0
   92.3512   89.6861  -47.7790 N   0  0  0  0  0  0  0  0  0  0  0  0
   90.3379   99.5243  -42.0873 N   0  3  0  0  0  0  0  0  0  0  0  0
   87.7153  101.0219  -44.9890 O   0  0  0  0  0  0  0  0  0  0  0  0
   91.7542   90.6749  -41.9643 F   0  0  0  0  0  0  0  0  0  0  0  0
   92.2727   92.7179  -41.3841 F   0  0  0  0  0  0  0  0  0  0  0  0
   93.4669   91.6676  -42.8741 F   0  0  0  0  0  0  0  0  0  0  0  0
   90.6341   96.8579  -40.9437 H   0  0  0  0  0  0  0  0  0  0  0  0
   90.6160   94.4749  -41.6195 H   0  0  0  0  0  0  0  0  0  0  0  0
   91.3871   91.8405  -49.0075 H   0  0  0  0  0  0  0  0  0  0  0  0
   89.3783   91.8538  -50.4547 H   0  0  0  0  0  0  0  0  0  0  0  0
   93.3392   95.5436  -46.2666 H   0  0  0  0  0  0  0  0  0  0  0  0
   92.7776   97.9225  -44.5282 H   0  0  0  0  0  0  0  0  0  0  0  0
   90.7713   87.6303  -48.4023 H   0  0  0  0  0  0  0  0  0  0  0  0
   87.9296  100.5981  -42.3272 H   0  0  0  0  0  0  0  0  0  0  0  0
   87.6862   98.8448  -42.4116 H   0  0  0  0  0  0  0  0  0  0  0  0
   91.0248  100.5176  -44.5656 H   0  0  0  0  0  0  0  0  0  0  0  0
   89.9879  101.6293  -43.6547 H   0  0  0  0  0  0  0  0  0  0  0  0
   87.2352   99.0131  -44.8603 H   0  0  0  0  0  0  0  0  0  0  0  0
   86.1850  100.1219  -43.9695 H   0  0  0  0  0  0  0  0  0  0  0  0
   89.3504  101.7082  -46.0118 H   0  0  0  0  0  0  0  0  0  0  0  0
   89.1182   99.9566  -46.0749 H   0  0  0  0  0  0  0  0  0  0  0  0
   89.6899   98.5837  -43.8232 H   0  0  0  0  0  0  0  0  0  0  0  0
   88.8066   89.5478  -53.0350 H   0  0  0  0  0  0  0  0  0  0  0  0
   87.1179   90.0385  -53.1132 H   0  0  0  0  0  0  0  0  0  0  0  0
   88.3585   91.1957  -52.5896 H   0  0  0  0  0  0  0  0  0  0  0  0
   87.9498   87.5696  -51.4916 H   0  0  0  0  0  0  0  0  0  0  0  0
   86.8894   87.9305  -50.1228 H   0  0  0  0  0  0  0  0  0  0  0  0
   86.3261   88.2251  -51.7626 H   0  0  0  0  0  0  0  0  0  0  0  0
   94.3569   90.2610  -47.5466 H   0  0  0  0  0  0  0  0  0  0  0  0
   93.4867   91.0938  -48.8435 H   0  0  0  0  0  0  0  0  0  0  0  0
   92.2131   99.5973  -42.9975 H   0  0  0  0  0  0  0  0  0  0  0  0
   92.2211   99.0910  -41.3023 H   0  0  0  0  0  0  0  0  0  0  0  0
   90.3082   92.5420  -43.1677 H   0  0  0  0  0  0  0  0  0  0  0  0
   91.2575   91.6565  -44.3422 H   0  0  0  0  0  0  0  0  0  0  0  0
   92.4861   88.9402  -47.1289 H   0  0  0  0  0  0  0  0  0  0  0  0
   89.8417   98.9795  -41.3675 H   0  0  0  0  0  0  0  0  0  0  0  0
   90.4113  100.4801  -41.7115 H   0  0  0  0  0  0  0  0  0  0  0  0
  1  2  3  0  0  0  0
  1 11  1  0  0  0  0
  2 24  1  0  0  0  0
  3 27  1  0  0  0  0
  3 29  3  0  0  0  0
  4  5  2  0  0  0  0
  4 13  1  0  0  0  0
  5 14  1  0  0  0  0
  6  7  2  0  0  0  0
  6 15  1  0  0  0  0
  7 16  1  0  0  0  0
  8 11  2  0  0  0  0
  8 12  1  0  0  0  0
  9 12  1  0  0  0  0
  9 13  2  0  0  0  0
 10 15  2  0  0  0  0
 10 30  1  0  0  0  0
 11 31  1  0  0  0  0
 12 14  2  0  0  0  0
 13 25  1  0  0  0  0
 14 31  1  0  0  0  0
 15 32  1  0  0  0  0
 16 27  1  0  0  0  0
 16 30  2  0  0  0  0
 17 19  1  0  0  0  0
 17 21  1  0  0  0  0
 18 20  1  0  0  0  0
 18 21  1  0  0  0  0
 19 34  1  0  0  0  0
 20 34  1  0  0  0  0
 21 33  1  0  0  0  0
 22 27  1  0  0  0  0
 23 27  1  0  0  0  0
 24 32  1  0  0  0  0
 25 33  1  0  0  0  0
 26 28  1  0  0  0  0
 26 31  1  0  0  0  0
 28 35  1  0  0  0  0
 28 36  1  0  0  0  0
 28 37  1  0  0  0  0
  4 38  1  0  0  0  0
  5 39  1  0  0  0  0
  6 40  1  0  0  0  0
  7 41  1  0  0  0  0
  8 42  1  0  0  0  0
  9 43  1  0  0  0  0
 10 44  1  0  0  0  0
 17 45  1  0  0  0  0
 17 46  1  0  0  0  0
 18 47  1  0  0  0  0
 18 48  1  0  0  0  0
 19 49  1  0  0  0  0
 19 50  1  0  0  0  0
 20 51  1  0  0  0  0
 20 52  1  0  0  0  0
 21 53  1  0  0  0  0
 22 54  1  0  0  0  0
 22 55  1  0  0  0  0
 22 56  1  0  0  0  0
 23 57  1  0  0  0  0
 23 58  1  0  0  0  0
 23 59  1  0  0  0  0
 24 60  1  0  0  0  0
 24 61  1  0  0  0  0
 25 62  1  0  0  0  0
 25 63  1  0  0  0  0
 26 64  1  0  0  0  0
 26 65  1  0  0  0  0
 32 66  1  0  0  0  0
 33 67  1  0  0  0  0
 33 68  1  0  0  0  0
M  CHG  1  33   1
M  END
> <HYBRID receptor title>
9S9P-CLEAN(A) > A1JMR(A-402)

> <HYBRID receptor filename>
../9S9P-CLEAN_A__DU__A1JMR_A-402.oedu

> <HYBRID Chemgauss4 score>
-2.394997

> <HYBRID receptor title>
9S9P-CLEAN(A) > A1JMR(A-402)

> <HYBRID receptor filename>
../9S9P-CLEAN_A__DU__A1JMR_A-402.oedu

> <Dock Type>
Hybrid

$$$$
Vu2025_09_1
  -OEChem-07272613503D

 64 67  0     0  0  0  0  0  0999 V2000
   91.0033   93.8922  -45.8977 C   0  0  0  0  0  0  0  0  0  0  0  0
   90.8085   93.2573  -46.8991 C   0  0  0  0  0  0  0  0  0  0  0  0
   89.8898   85.5313  -50.5916 C   0  0  0  0  0  0  0  0  0  0  0  0
   91.8769   96.2593  -40.4572 C   0  0  0  0  0  0  0  0  0  0  0  0
   91.6164   95.0656  -41.1354 C   0  0  0  0  0  0  0  0  0  0  0  0
   92.0203   97.4610  -41.1474 C   0  0  0  0  0  0  0  0  0  0  0  0
   91.0124   88.7655  -48.2103 C   0  0  0  0  0  0  0  0  0  0  0  0
   90.4626   87.6600  -48.8496 C   0  0  0  0  0  0  0  0  0  0  0  0
   91.4701   95.9948  -44.6231 C   0  0  0  0  0  0  0  0  0  0  0  0
   89.7830   90.1664  -49.6880 C   0  0  0  0  0  0  0  0  0  0  0  0
   91.2337   94.6425  -44.7119 C   0  0  0  0  0  0  0  0  0  0  0  0
   91.6438   96.3139  -43.2471 C   0  0  0  0  0  0  0  0  0  0  0  0
   91.5052   95.1241  -42.5294 C   0  0  0  0  0  0  0  0  0  0  0  0
   90.6715   90.0462  -48.6311 C   0  0  0  0  0  0  0  0  0  0  0  0
   91.9069   97.5051  -42.5415 C   0  0  0  0  0  0  0  0  0  0  0  0
   89.5836   87.8866  -49.8964 C   0  0  0  0  0  0  0  0  0  0  0  0
   91.4942  101.0325  -43.6961 C   0  0  0  0  0  0  0  0  0  0  0  0
   90.1761   99.1413  -44.6878 C   0  0  0  0  0  0  0  0  0  0  0  0
   90.3682  101.9593  -44.1412 C   0  0  0  0  0  0  0  0  0  0  0  0
   89.1222  100.1722  -45.0761 C   0  0  0  0  0  0  0  0  0  0  0  0
   90.9590   99.6200  -43.4647 C   0  0  0  0  0  0  0  0  0  0  0  0
   87.6179   86.2119  -50.0220 C   0  0  0  0  0  0  0  0  0  0  0  0
   88.6855   87.0703  -52.0982 C   0  0  0  0  0  0  0  0  0  0  0  0
   90.5708   92.4860  -48.1199 C   0  0  0  0  0  0  0  0  0  0  0  0
   91.0502   92.7312  -43.1085 C   0  0  0  0  0  0  0  0  0  0  0  0
   88.9754   86.7231  -50.6058 C   0  0  0  0  0  0  0  0  0  0  0  0
   92.3476   92.0163  -42.7896 C   0  0  0  0  0  0  0  0  0  0  0  0
   90.6152   84.6261  -50.5647 N   0  0  0  0  0  0  0  0  0  0  0  0
   89.2286   89.1157  -50.3333 N   0  0  0  0  0  0  0  0  0  0  0  0
   91.2569   94.1256  -43.4440 N   0  0  0  0  0  0  0  0  0  0  0  0
   92.0553   98.7181  -43.1916 N   0  0  0  0  0  0  0  0  0  0  0  0
   91.1966   91.1512  -48.0215 N   0  0  0  0  0  0  0  0  0  0  0  0
   89.7220  101.4470  -45.3069 O   0  0  0  0  0  0  0  0  0  0  0  0
   92.1448   90.7087  -42.5225 F   0  0  0  0  0  0  0  0  0  0  0  0
   92.9741   92.5693  -41.7286 F   0  0  0  0  0  0  0  0  0  0  0  0
   93.1927   92.0889  -43.8431 F   0  0  0  0  0  0  0  0  0  0  0  0
   91.9693   96.2486  -39.3741 H   0  0  0  0  0  0  0  0  0  0  0  0
   91.5059   94.1332  -40.5923 H   0  0  0  0  0  0  0  0  0  0  0  0
   92.2228   98.3706  -40.5863 H   0  0  0  0  0  0  0  0  0  0  0  0
   91.7059   88.6179  -47.3869 H   0  0  0  0  0  0  0  0  0  0  0  0
   90.7214   86.6557  -48.5313 H   0  0  0  0  0  0  0  0  0  0  0  0
   91.5149   96.6852  -45.4556 H   0  0  0  0  0  0  0  0  0  0  0  0
   89.4784   91.1396  -50.0609 H   0  0  0  0  0  0  0  0  0  0  0  0
   92.2590  101.0094  -44.4836 H   0  0  0  0  0  0  0  0  0  0  0  0
   91.9635  101.4237  -42.7864 H   0  0  0  0  0  0  0  0  0  0  0  0
   89.6991   98.1750  -44.4896 H   0  0  0  0  0  0  0  0  0  0  0  0
   90.8650   99.0088  -45.5324 H   0  0  0  0  0  0  0  0  0  0  0  0
   89.6275  102.0984  -43.3450 H   0  0  0  0  0  0  0  0  0  0  0  0
   90.7741  102.9447  -44.3909 H   0  0  0  0  0  0  0  0  0  0  0  0
   88.6251   99.8655  -46.0019 H   0  0  0  0  0  0  0  0  0  0  0  0
   88.3513  100.2663  -44.3022 H   0  0  0  0  0  0  0  0  0  0  0  0
   90.2934   99.6308  -42.5930 H   0  0  0  0  0  0  0  0  0  0  0  0
   86.8531   86.9976  -49.9778 H   0  0  0  0  0  0  0  0  0  0  0  0
   87.2047   85.4042  -50.6382 H   0  0  0  0  0  0  0  0  0  0  0  0
   87.7481   85.8303  -49.0025 H   0  0  0  0  0  0  0  0  0  0  0  0
   88.0186   87.9385  -52.1653 H   0  0  0  0  0  0  0  0  0  0  0  0
   89.6051   87.3182  -52.6415 H   0  0  0  0  0  0  0  0  0  0  0  0
   88.2131   86.2433  -52.6429 H   0  0  0  0  0  0  0  0  0  0  0  0
   90.9855   93.0012  -48.9914 H   0  0  0  0  0  0  0  0  0  0  0  0
   89.4970   92.3535  -48.2861 H   0  0  0  0  0  0  0  0  0  0  0  0
   90.3684   92.6574  -42.2528 H   0  0  0  0  0  0  0  0  0  0  0  0
   90.5452   92.2245  -43.9398 H   0  0  0  0  0  0  0  0  0  0  0  0
   92.9827   98.9910  -43.4944 H   0  0  0  0  0  0  0  0  0  0  0  0
   92.0342   91.0921  -47.4812 H   0  0  0  0  0  0  0  0  0  0  0  0
  1  2  3  0  0  0  0
  1 11  1  0  0  0  0
  2 24  1  0  0  0  0
  3 26  1  0  0  0  0
  3 28  3  0  0  0  0
  4  5  2  0  0  0  0
  4  6  1  0  0  0  0
  5 13  1  0  0  0  0
  6 15  2  0  0  0  0
  7  8  2  0  0  0  0
  7 14  1  0  0  0  0
  8 16  1  0  0  0  0
  9 11  2  0  0  0  0
  9 12  1  0  0  0  0
 10 14  2  0  0  0  0
 10 29  1  0  0  0  0
 11 30  1  0  0  0  0
 12 13  2  0  0  0  0
 12 15  1  0  0  0  0
 13 30  1  0  0  0  0
 14 32  1  0  0  0  0
 15 31  1  0  0  0  0
 16 26  1  0  0  0  0
 16 29  2  0  0  0  0
 17 19  1  0  0  0  0
 17 21  1  0  0  0  0
 18 20  1  0  0  0  0
 18 21  1  0  0  0  0
 19 33  1  0  0  0  0
 20 33  1  0  0  0  0
 21 31  1  0  0  0  0
 22 26  1  0  0  0  0
 23 26  1  0  0  0  0
 24 32  1  0  0  0  0
 25 27  1  0  0  0  0
 25 30  1  0  0  0  0
 27 34  1  0  0  0  0
 27 35  1  0  0  0  0
 27 36  1  0  0  0  0
  4 37  1  0  0  0  0
  5 38  1  0  0  0  0
  6 39  1  0  0  0  0
  7 40  1  0  0  0  0
  8 41  1  0  0  0  0
  9 42  1  0  0  0  0
 10 43  1  0  0  0  0
 17 44  1  0  0  0  0
 17 45  1  0  0  0  0
 18 46  1  0  0  0  0
 18 47  1  0  0  0  0
 19 48  1  0  0  0  0
 19 49  1  0  0  0  0
 20 50  1  0  0  0  0
 20 51  1  0  0  0  0
 21 52  1  0  0  0  0
 22 53  1  0  0  0  0
 22 54  1  0  0  0  0
 22 55  1  0  0  0  0
 23 56  1  0  0  0  0
 23 57  1  0  0  0  0
 23 58  1  0  0  0  0
 24 59  1  0  0  0  0
 24 60  1  0  0  0  0
 25 61  1  0  0  0  0
 25 62  1  0  0  0  0
 31 63  1  0  0  0  0
 32 64  1  0  0  0  0
M  END
> <HYBRID receptor title>
9S9P-CLEAN(A) > A1JMR(A-402)

> <HYBRID receptor filename>
../9S9P-CLEAN_A__DU__A1JMR_A-402.oedu

> <HYBRID Chemgauss4 score>
-1.752338

> <HYBRID receptor title>
9S9P-CLEAN(A) > A1JMR(A-402)

> <HYBRID receptor filename>
../9S9P-CLEAN_A__DU__A1JMR_A-402.oedu

> <Dock Type>
Hybrid

$$$$
